100005
  -INDIGO-08031720192D

 23 23  0  0  0  0  0  0  0  0999 V2000
   -2.7713   -0.0000    0.0000 C   0  0  0  0  0  0  0  0  0  0  0  0
   -2.7713   -1.6000    0.0000 O   0  0  0  0  0  0  0  0  0  0  0  0
   -1.3856    0.8000    0.0000 N   0  0  0  0  0  0  0  0  0  0  0  0
   -1.3856    2.4000    0.0000 H   0  0  0  0  0  0  0  0  0  0  0  0
    0.0001   -0.0000    0.0000 C   0  0  0  0  0  0  0  0  0  0  0  0
    0.0001   -1.6000    0.0000 C   0  0  0  0  0  0  0  0  0  0  0  0
   -1.3856   -2.4000    0.0000 H   0  0  0  0  0  0  0  0  0  0  0  0
    1.3856   -2.4000    0.0000 C   0  0  0  0  0  0  0  0  0  0  0  0
    1.3856   -4.0000    0.0000 H   0  0  0  0  0  0  0  0  0  0  0  0
    2.7713   -1.6000    0.0000 C   0  0  0  0  0  0  0  0  0  0  0  0
    4.1570   -2.4000    0.0000 O   0  0  0  0  0  0  0  0  0  0  0  0
    5.5425   -1.6000    0.0000 C   0  0  0  0  0  0  0  0  0  0  0  0
    6.9282   -2.4000    0.0000 H   0  0  0  0  0  0  0  0  0  0  0  0
    6.9282   -0.8000    0.0000 H   0  0  0  0  0  0  0  0  0  0  0  0
    5.5425   -3.2000    0.0000 H   0  0  0  0  0  0  0  0  0  0  0  0
    2.7713   -0.0000    0.0000 C   0  0  0  0  0  0  0  0  0  0  0  0
    4.1570    0.8000    0.0000 H   0  0  0  0  0  0  0  0  0  0  0  0
    1.3856    0.8000    0.0000 C   0  0  0  0  0  0  0  0  0  0  0  0
    1.3856    2.4000    0.0000 H   0  0  0  0  0  0  0  0  0  0  0  0
   -4.1569    0.8000    0.0000 C   0  0  0  0  0  0  0  0  0  0  0  0
   -5.5426    1.6000    0.0000 H   0  0  0  0  0  0  0  0  0  0  0  0
   -5.5426   -0.0000    0.0000 H   0  0  0  0  0  0  0  0  0  0  0  0
   -4.1569    2.4000    0.0000 H   0  0  0  0  0  0  0  0  0  0  0  0
  1  2  2  0  0  0  0
  1  3  1  0  0  0  0
  3  4  1  0  0  0  0
  3  5  1  0  0  0  0
  5  6  1  0  0  0  0
  6  7  1  0  0  0  0
  6  8  2  0  0  0  0
  8  9  1  0  0  0  0
  8 10  1  0  0  0  0
 10 11  1  0  0  0  0
 11 12  1  0  0  0  0
 12 13  1  0  0  0  0
 12 14  1  0  0  0  0
 12 15  1  0  0  0  0
 10 16  2  0  0  0  0
 16 17  1  0  0  0  0
 16 18  1  0  0  0  0
 18  5  2  0  0  0  0
 18 19  1  0  0  0  0
  1 20  1  0  0  0  0
 20 21  1  0  0  0  0
 20 22  1  0  0  0  0
 20 23  1  0  0  0  0
M  END
> <ChemID>
100005

> <source_casrn>
51-66-1

> <CAS>
51-66-1

> <SMILES>
CC(=O)Nc1ccc(cc1)OC

> <NAME>
P-METHOXYACETANILIDE

> <preferred_name>
N-(4-Methoxyphenyl)acetamide

> <iupac>
N-(4-methoxyphenyl)acetamide

> <MPID>
19095

> <dsstox_substance_id>
DTXSID6026325

> <Canonical_QSARr>
CC(=O)Nc1ccc(cc1)OC

> <InChI_Code_QSARr>
InChI=1S/C9H11NO2/c1-7(11)10-8-3-5-9(12-2)6-4-8/h3-6H,1-2H3,(H,10,11)

> <InChI Key_QSARr>
XVAIDCNLVLTVFM-UHFFFAOYSA-N

> <Salt_Solvent>
?

> <BP>
335.0

$$$$
100009
  -INDIGO-08031720192D

 30 32  0  0  0  0  0  0  0  0999 V2000
    0.8001   -1.3856    0.0000 C   0  0  0  0  0  0  0  0  0  0  0  0
    2.3650   -1.0529    0.0000 C   0  0  0  0  0  0  0  0  0  0  0  0
    2.5322    0.5383    0.0000 C   0  0  0  0  0  0  0  0  0  0  0  0
    3.9941    1.1891    0.0000 C   0  0  0  0  0  0  0  0  0  0  0  0
    4.1613    2.7803    0.0000 H   0  0  0  0  0  0  0  0  0  0  0  0
    5.2884    0.2485    0.0000 C   0  0  0  0  0  0  0  0  0  0  0  0
    6.7501    0.8993    0.0000 H   0  0  0  0  0  0  0  0  0  0  0  0
    5.1212   -1.3427    0.0000 C   0  0  0  0  0  0  0  0  0  0  0  0
    6.4156   -2.2831    0.0000 H   0  0  0  0  0  0  0  0  0  0  0  0
    3.6594   -1.9935    0.0000 C   0  0  0  0  0  0  0  0  0  0  0  0
    3.4921   -3.5847    0.0000 H   0  0  0  0  0  0  0  0  0  0  0  0
    1.0706    1.1891    0.0000 C   0  0  0  0  0  0  0  0  0  0  0  0
    1.8705    2.5747    0.0000 H   0  0  0  0  0  0  0  0  0  0  0  0
   -0.2238    2.1295    0.0000 H   0  0  0  0  0  0  0  0  0  0  0  0
   -0.0001    0.0000    0.0000 C   0  0  0  0  0  0  0  0  0  0  0  0
   -1.6001    0.0000    0.0000 C   0  0  0  0  0  0  0  0  0  0  0  0
   -2.4000    1.3856    0.0000 H   0  0  0  0  0  0  0  0  0  0  0  0
   -2.4000   -1.3856    0.0000 C   0  0  0  0  0  0  0  0  0  0  0  0
   -4.0000   -1.3856    0.0000 N   0  0  0  0  0  0  0  0  0  0  0  0
   -4.7999    0.0000    0.0000 H   0  0  0  0  0  0  0  0  0  0  0  0
   -4.7999   -2.7713    0.0000 C   0  0  0  0  0  0  0  0  0  0  0  0
   -6.4000   -2.7713    0.0000 C   0  0  0  0  0  0  0  0  0  0  0  0
   -8.0000   -2.7713    0.0000 H   0  0  0  0  0  0  0  0  0  0  0  0
   -7.2001   -4.1569    0.0000 H   0  0  0  0  0  0  0  0  0  0  0  0
   -7.2001   -1.3856    0.0000 H   0  0  0  0  0  0  0  0  0  0  0  0
   -4.0000   -4.1569    0.0000 O   0  0  0  0  0  0  0  0  0  0  0  0
   -1.6001   -2.7713    0.0000 C   0  0  0  0  0  0  0  0  0  0  0  0
   -2.4000   -4.1569    0.0000 H   0  0  0  0  0  0  0  0  0  0  0  0
   -0.0001   -2.7713    0.0000 C   0  0  0  0  0  0  0  0  0  0  0  0
    0.8001   -4.1569    0.0000 H   0  0  0  0  0  0  0  0  0  0  0  0
  1  2  1  0  0  0  0
  2  3  1  0  0  0  0
  3  4  2  0  0  0  0
  4  5  1  0  0  0  0
  4  6  1  0  0  0  0
  6  7  1  0  0  0  0
  6  8  2  0  0  0  0
  8  9  1  0  0  0  0
  8 10  1  0  0  0  0
 10  2  2  0  0  0  0
 10 11  1  0  0  0  0
  3 12  1  0  0  0  0
 12 13  1  0  0  0  0
 12 14  1  0  0  0  0
 12 15  1  0  0  0  0
 15  1  1  0  0  0  0
 15 16  2  0  0  0  0
 16 17  1  0  0  0  0
 16 18  1  0  0  0  0
 18 19  1  0  0  0  0
 19 20  1  0  0  0  0
 19 21  1  0  0  0  0
 21 22  1  0  0  0  0
 22 23  1  0  0  0  0
 22 24  1  0  0  0  0
 22 25  1  0  0  0  0
 21 26  2  0  0  0  0
 18 27  2  0  0  0  0
 27 28  1  0  0  0  0
 27 29  1  0  0  0  0
 29  1  2  0  0  0  0
 29 30  1  0  0  0  0
M  END
> <ChemID>
100009

> <source_casrn>
53-96-3

> <CAS>
53-96-3

> <SMILES>
CC(=O)Nc1cc2Cc3ccccc3-c2cc1

> <NAME>
N-2-FLUORENYLACETAMIDE

> <preferred_name>
2-Acetylaminofluorene

> <iupac>
N-(9H-fluoren-2-yl)acetamide

> <MPID>
19099

> <dsstox_substance_id>
DTXSID0039227

> <Canonical_QSARr>
CC(=O)Nc1cc2Cc3ccccc3-c2cc1

> <InChI_Code_QSARr>
InChI=1S/C15H13NO/c1-10(17)16-13-6-7-15-12(9-13)8-11-4-2-3-5-14(11)15/h2-7,9H,8H2,1H3,(H,16,17)

> <InChI Key_QSARr>
CZIHNRWJTSTCEX-UHFFFAOYSA-N

> <Salt_Solvent>
?

> <BP>
303.0

$$$$
100013
  -INDIGO-08031720192D

 16 16  0  0  0  0  0  0  0  0999 V2000
   -0.8000    1.3856    0.0000 C   0  0  0  0  0  0  0  0  0  0  0  0
   -0.0000    2.7713    0.0000 H   0  0  0  0  0  0  0  0  0  0  0  0
   -2.4000    1.3856    0.0000 C   0  0  0  0  0  0  0  0  0  0  0  0
   -3.2001    2.7713    0.0000 H   0  0  0  0  0  0  0  0  0  0  0  0
   -3.2001    0.0000    0.0000 C   0  0  0  0  0  0  0  0  0  0  0  0
   -4.8000    0.0000    0.0000 H   0  0  0  0  0  0  0  0  0  0  0  0
   -2.4000   -1.3856    0.0000 C   0  0  0  0  0  0  0  0  0  0  0  0
   -3.2001   -2.7713    0.0000 H   0  0  0  0  0  0  0  0  0  0  0  0
   -0.8000   -1.3856    0.0000 C   0  0  0  0  0  0  0  0  0  0  0  0
   -0.0000   -2.7713    0.0000 H   0  0  0  0  0  0  0  0  0  0  0  0
   -0.0000   -0.0000    0.0000 C   0  0  0  0  0  0  0  0  0  0  0  0
    1.6000    0.0000    0.0000 C   0  0  0  0  0  0  0  0  0  0  0  0
    2.4001    1.3856    0.0000 O   0  0  0  0  0  0  0  0  0  0  0  0
    2.4001   -1.3856    0.0000 N   0  0  0  0  0  0  0  0  0  0  0  0
    4.0000   -1.3856    0.0000 H   0  0  0  0  0  0  0  0  0  0  0  0
    1.6000   -2.7713    0.0000 H   0  0  0  0  0  0  0  0  0  0  0  0
  1  2  1  0  0  0  0
  1  3  1  0  0  0  0
  3  4  1  0  0  0  0
  3  5  2  0  0  0  0
  5  6  1  0  0  0  0
  5  7  1  0  0  0  0
  7  8  1  0  0  0  0
  7  9  2  0  0  0  0
  9 10  1  0  0  0  0
  9 11  1  0  0  0  0
 11  1  2  0  0  0  0
 11 12  1  0  0  0  0
 12 13  2  0  0  0  0
 12 14  1  0  0  0  0
 14 15  1  0  0  0  0
 14 16  1  0  0  0  0
M  END
> <ChemID>
100013

> <source_casrn>
55-21-0

> <CAS>
55-21-0

> <SMILES>
NC(=O)c1ccccc1

> <NAME>
BENZAMIDE

> <preferred_name>
Benzamide

> <iupac>
benzamide

> <MPID>
19103

> <dsstox_substance_id>
DTXSID0021709

> <Canonical_QSARr>
NC(=O)c1ccccc1

> <InChI_Code_QSARr>
InChI=1S/C7H7NO/c8-7(9)6-4-2-1-3-5-6/h1-5H,(H2,8,9)

> <InChI Key_QSARr>
KXDAEFPNCMNJSK-UHFFFAOYSA-N

> <Salt_Solvent>
?

> <BP>
290.0

$$$$
100017
  -INDIGO-08031720192D

 32 32  0  0  0  0  0  0  0  0999 V2000
    0.0000    1.6000    0.0000 S   0  0  0  0  0  0  0  0  0  0  0  0
    0.0000    0.0000    0.0000 P   0  0  0  0  0  0  0  0  0  0  0  0
    1.3857    0.8000    0.0000 O   0  0  0  0  0  0  0  0  0  0  0  0
    2.7713    0.0000    0.0000 C   0  0  0  0  0  0  0  0  0  0  0  0
    2.7713   -1.6000    0.0000 C   0  0  0  0  0  0  0  0  0  0  0  0
    1.3857   -2.4000    0.0000 H   0  0  0  0  0  0  0  0  0  0  0  0
    4.1570   -2.4000    0.0000 C   0  0  0  0  0  0  0  0  0  0  0  0
    4.1570   -4.0000    0.0000 H   0  0  0  0  0  0  0  0  0  0  0  0
    5.5426   -1.6000    0.0000 C   0  0  0  0  0  0  0  0  0  0  0  0
    6.9283   -2.4000    0.0000 N   0  0  0  0  0  0  0  0  0  0  0  0
    8.3138   -1.6000    0.0000 O   0  0  0  0  0  0  0  0  0  0  0  0
    6.9283   -4.0000    0.0000 O   0  0  0  0  0  0  0  0  0  0  0  0
    5.5426    0.0000    0.0000 C   0  0  0  0  0  0  0  0  0  0  0  0
    6.9283    0.8000    0.0000 H   0  0  0  0  0  0  0  0  0  0  0  0
    4.1570    0.8000    0.0000 C   0  0  0  0  0  0  0  0  0  0  0  0
    4.1570    2.4000    0.0000 H   0  0  0  0  0  0  0  0  0  0  0  0
   -1.3855    0.8000    0.0000 O   0  0  0  0  0  0  0  0  0  0  0  0
   -2.7713    0.0000    0.0000 C   0  0  0  0  0  0  0  0  0  0  0  0
   -2.1590   -1.4782    0.0000 H   0  0  0  0  0  0  0  0  0  0  0  0
   -3.3836   -1.4782    0.0000 H   0  0  0  0  0  0  0  0  0  0  0  0
   -4.1568    0.8000    0.0000 C   0  0  0  0  0  0  0  0  0  0  0  0
   -5.5426    1.6000    0.0000 H   0  0  0  0  0  0  0  0  0  0  0  0
   -5.5426    0.0000    0.0000 H   0  0  0  0  0  0  0  0  0  0  0  0
   -4.1568    2.4000    0.0000 H   0  0  0  0  0  0  0  0  0  0  0  0
   -1.3855   -0.8000    0.0000 O   0  0  0  0  0  0  0  0  0  0  0  0
   -1.3855   -2.4000    0.0000 C   0  0  0  0  0  0  0  0  0  0  0  0
    0.2007   -2.6089    0.0000 H   0  0  0  0  0  0  0  0  0  0  0  0
   -0.4117   -3.6694    0.0000 H   0  0  0  0  0  0  0  0  0  0  0  0
   -2.7713   -3.2000    0.0000 C   0  0  0  0  0  0  0  0  0  0  0  0
   -4.1568   -4.0000    0.0000 H   0  0  0  0  0  0  0  0  0  0  0  0
   -2.7713   -4.8000    0.0000 H   0  0  0  0  0  0  0  0  0  0  0  0
   -4.1568   -2.4000    0.0000 H   0  0  0  0  0  0  0  0  0  0  0  0
  1  2  2  0  0  0  0
  2  3  1  0  0  0  0
  3  4  1  0  0  0  0
  4  5  1  0  0  0  0
  5  6  1  0  0  0  0
  5  7  2  0  0  0  0
  7  8  1  0  0  0  0
  7  9  1  0  0  0  0
  9 10  1  0  0  0  0
 10 11  2  0  0  0  0
 10 12  1  0  0  0  0
  9 13  2  0  0  0  0
 13 14  1  0  0  0  0
 13 15  1  0  0  0  0
 15  4  2  0  0  0  0
 15 16  1  0  0  0  0
  2 17  1  0  0  0  0
 17 18  1  0  0  0  0
 18 19  1  0  0  0  0
 18 20  1  0  0  0  0
 18 21  1  0  0  0  0
 21 22  1  0  0  0  0
 21 23  1  0  0  0  0
 21 24  1  0  0  0  0
  2 25  1  0  0  0  0
 25 26  1  0  0  0  0
 26 27  1  0  0  0  0
 26 28  1  0  0  0  0
 26 29  1  0  0  0  0
 29 30  1  0  0  0  0
 29 31  1  0  0  0  0
 29 32  1  0  0  0  0
M  CHG  2  10   1  12  -1
M  END
> <ChemID>
100017

> <source_casrn>
56-38-2

> <CAS>
56-38-2

> <SMILES>
CCOP(=S)(Oc1ccc(cc1)[N+]([O-])=O)OCC

> <NAME>
PARATHION

> <preferred_name>
Parathion

> <iupac>
O,O-diethyl O-(4-nitrophenyl) phosphorothioate

> <MPID>
19107

> <dsstox_substance_id>
DTXSID7021100

> <Canonical_QSARr>
CCOP(=S)(Oc1ccc(cc1)[N+]([O-])=O)OCC

> <InChI_Code_QSARr>
InChI=1S/C10H14NO5PS/c1-3-14-17(18,15-4-2)16-10-7-5-9(6-8-10)11(12)13/h5-8H,3-4H2,1-2H3

> <InChI Key_QSARr>
LCCNCVORNKJIRZ-UHFFFAOYSA-N

> <Salt_Solvent>
?

> <BP>
375.0

$$$$
100021
  -INDIGO-08031720192D

 50 49  0  0  0  0  0  0  0  0999 V2000
   12.4707    0.8000    0.0000 O   0  0  0  0  0  0  0  0  0  0  0  0
   13.8564    0.0000    0.0000 H   0  0  0  0  0  0  0  0  0  0  0  0
   11.0850    0.0000    0.0000 C   0  0  0  0  0  0  0  0  0  0  0  0
   11.0850   -1.6000    0.0000 O   0  0  0  0  0  0  0  0  0  0  0  0
    9.6997    0.8000    0.0000 C   0  0  0  0  0  0  0  0  0  0  0  0
    9.0873    2.2782    0.0000 H   0  0  0  0  0  0  0  0  0  0  0  0
   10.3117    2.2782    0.0000 H   0  0  0  0  0  0  0  0  0  0  0  0
    8.3140    0.0000    0.0000 C   0  0  0  0  0  0  0  0  0  0  0  0
    8.9259   -1.4782    0.0000 H   0  0  0  0  0  0  0  0  0  0  0  0
    7.7016   -1.4782    0.0000 H   0  0  0  0  0  0  0  0  0  0  0  0
    6.9283    0.8000    0.0000 C   0  0  0  0  0  0  0  0  0  0  0  0
    6.3159    2.2782    0.0000 H   0  0  0  0  0  0  0  0  0  0  0  0
    7.5406    2.2782    0.0000 H   0  0  0  0  0  0  0  0  0  0  0  0
    5.5426    0.0000    0.0000 C   0  0  0  0  0  0  0  0  0  0  0  0
    6.1549   -1.4782    0.0000 H   0  0  0  0  0  0  0  0  0  0  0  0
    4.9302   -1.4782    0.0000 H   0  0  0  0  0  0  0  0  0  0  0  0
    4.1569    0.8000    0.0000 C   0  0  0  0  0  0  0  0  0  0  0  0
    3.5445    2.2782    0.0000 H   0  0  0  0  0  0  0  0  0  0  0  0
    4.7692    2.2782    0.0000 H   0  0  0  0  0  0  0  0  0  0  0  0
    2.7712    0.0000    0.0000 C   0  0  0  0  0  0  0  0  0  0  0  0
    3.3835   -1.4782    0.0000 H   0  0  0  0  0  0  0  0  0  0  0  0
    2.1592   -1.4782    0.0000 H   0  0  0  0  0  0  0  0  0  0  0  0
    1.3855    0.8000    0.0000 C   0  0  0  0  0  0  0  0  0  0  0  0
    0.7735    2.2782    0.0000 H   0  0  0  0  0  0  0  0  0  0  0  0
    1.9978    2.2782    0.0000 H   0  0  0  0  0  0  0  0  0  0  0  0
    0.0001    0.0000    0.0000 C   0  0  0  0  0  0  0  0  0  0  0  0
    0.6121   -1.4782    0.0000 H   0  0  0  0  0  0  0  0  0  0  0  0
   -0.6122   -1.4782    0.0000 H   0  0  0  0  0  0  0  0  0  0  0  0
   -1.3856    0.8000    0.0000 C   0  0  0  0  0  0  0  0  0  0  0  0
   -1.9979    2.2782    0.0000 H   0  0  0  0  0  0  0  0  0  0  0  0
   -0.7732    2.2782    0.0000 H   0  0  0  0  0  0  0  0  0  0  0  0
   -2.7713    0.0000    0.0000 C   0  0  0  0  0  0  0  0  0  0  0  0
   -2.1589   -1.4782    0.0000 H   0  0  0  0  0  0  0  0  0  0  0  0
   -3.3836   -1.4782    0.0000 H   0  0  0  0  0  0  0  0  0  0  0  0
   -4.1570    0.8000    0.0000 C   0  0  0  0  0  0  0  0  0  0  0  0
   -4.7693    2.2782    0.0000 H   0  0  0  0  0  0  0  0  0  0  0  0
   -3.5446    2.2782    0.0000 H   0  0  0  0  0  0  0  0  0  0  0  0
   -5.5427    0.0000    0.0000 C   0  0  0  0  0  0  0  0  0  0  0  0
   -4.9303   -1.4782    0.0000 H   0  0  0  0  0  0  0  0  0  0  0  0
   -6.1547   -1.4782    0.0000 H   0  0  0  0  0  0  0  0  0  0  0  0
   -6.9284    0.8000    0.0000 C   0  0  0  0  0  0  0  0  0  0  0  0
   -7.5404    2.2782    0.0000 H   0  0  0  0  0  0  0  0  0  0  0  0
   -6.3160    2.2782    0.0000 H   0  0  0  0  0  0  0  0  0  0  0  0
   -8.3137    0.0000    0.0000 C   0  0  0  0  0  0  0  0  0  0  0  0
   -7.7017   -1.4782    0.0000 H   0  0  0  0  0  0  0  0  0  0  0  0
   -8.9261   -1.4782    0.0000 H   0  0  0  0  0  0  0  0  0  0  0  0
   -9.6994    0.8000    0.0000 C   0  0  0  0  0  0  0  0  0  0  0  0
  -11.0851    1.6000    0.0000 H   0  0  0  0  0  0  0  0  0  0  0  0
  -11.0851    0.0000    0.0000 H   0  0  0  0  0  0  0  0  0  0  0  0
   -9.6994    2.4000    0.0000 H   0  0  0  0  0  0  0  0  0  0  0  0
  1  2  1  0  0  0  0
  1  3  1  0  0  0  0
  3  4  2  0  0  0  0
  3  5  1  0  0  0  0
  5  6  1  0  0  0  0
  5  7  1  0  0  0  0
  5  8  1  0  0  0  0
  8  9  1  0  0  0  0
  8 10  1  0  0  0  0
  8 11  1  0  0  0  0
 11 12  1  0  0  0  0
 11 13  1  0  0  0  0
 11 14  1  0  0  0  0
 14 15  1  0  0  0  0
 14 16  1  0  0  0  0
 14 17  1  0  0  0  0
 17 18  1  0  0  0  0
 17 19  1  0  0  0  0
 17 20  1  0  0  0  0
 20 21  1  0  0  0  0
 20 22  1  0  0  0  0
 20 23  1  0  0  0  0
 23 24  1  0  0  0  0
 23 25  1  0  0  0  0
 23 26  1  0  0  0  0
 26 27  1  0  0  0  0
 26 28  1  0  0  0  0
 26 29  1  0  0  0  0
 29 30  1  0  0  0  0
 29 31  1  0  0  0  0
 29 32  1  0  0  0  0
 32 33  1  0  0  0  0
 32 34  1  0  0  0  0
 32 35  1  0  0  0  0
 35 36  1  0  0  0  0
 35 37  1  0  0  0  0
 35 38  1  0  0  0  0
 38 39  1  0  0  0  0
 38 40  1  0  0  0  0
 38 41  1  0  0  0  0
 41 42  1  0  0  0  0
 41 43  1  0  0  0  0
 41 44  1  0  0  0  0
 44 45  1  0  0  0  0
 44 46  1  0  0  0  0
 44 47  1  0  0  0  0
 47 48  1  0  0  0  0
 47 49  1  0  0  0  0
 47 50  1  0  0  0  0
M  END
> <ChemID>
100021

> <source_casrn>
57-10-3

> <CAS>
57-10-3

> <SMILES>
CCCCCCCCCCCCCCCC(O)=O

> <NAME>
PALMITIC ACID

> <preferred_name>
Hexadecanoic acid

> <iupac>
hexadecanoic acid

> <MPID>
19111

> <dsstox_substance_id>
DTXSID2021602

> <Canonical_QSARr>
CCCCCCCCCCCCCCCC(O)=O

> <InChI_Code_QSARr>
InChI=1S/C16H32O2/c1-2-3-4-5-6-7-8-9-10-11-12-13-14-15-16(17)18/h2-15H2,1H3,(H,17,18)

> <InChI Key_QSARr>
IPCSVZSSVZVIGE-UHFFFAOYSA-N

> <Salt_Solvent>
?

> <BP>
351.5

$$$$
100025
  -INDIGO-08031720192D

 13 12  0  0  0  0  0  0  0  0999 V2000
    1.6000    0.0000    0.0000 C   0  0  0  0  0  0  0  0  0  0  0  0
    3.2000    0.0000    0.0000 H   0  0  0  0  0  0  0  0  0  0  0  0
    2.4000    1.3856    0.0000 H   0  0  0  0  0  0  0  0  0  0  0  0
    2.4000   -1.3856    0.0000 H   0  0  0  0  0  0  0  0  0  0  0  0
   -0.0000    0.0000    0.0000 C   0  0  0  0  0  0  0  0  0  0  0  0
   -0.0000   -1.6000    0.0000 H   0  0  0  0  0  0  0  0  0  0  0  0
   -1.6000    0.0000    0.0000 C   0  0  0  0  0  0  0  0  0  0  0  0
   -1.8089    1.5863    0.0000 H   0  0  0  0  0  0  0  0  0  0  0  0
   -2.8694    0.9740    0.0000 H   0  0  0  0  0  0  0  0  0  0  0  0
   -2.4000   -1.3856    0.0000 O   0  0  0  0  0  0  0  0  0  0  0  0
   -4.0000   -1.3856    0.0000 H   0  0  0  0  0  0  0  0  0  0  0  0
   -0.0000    1.6000    0.0000 O   0  0  0  0  0  0  0  0  0  0  0  0
    1.3857    2.4000    0.0000 H   0  0  0  0  0  0  0  0  0  0  0  0
  1  2  1  0  0  0  0
  1  3  1  0  0  0  0
  1  4  1  0  0  0  0
  1  5  1  0  0  0  0
  5  6  1  0  0  0  0
  5  7  1  0  0  0  0
  7  8  1  0  0  0  0
  7  9  1  0  0  0  0
  7 10  1  0  0  0  0
 10 11  1  0  0  0  0
  5 12  1  0  0  0  0
 12 13  1  0  0  0  0
M  END
> <ChemID>
100025

> <source_casrn>
57-55-6

> <CAS>
57-55-6

> <SMILES>
CC(O)CO

> <NAME>
1,2-PROPANEDIOL

> <preferred_name>
1,2-Propylene glycol

> <iupac>
propane-1,2-diol

> <MPID>
19115

> <dsstox_substance_id>
DTXSID0021206

> <Canonical_QSARr>
CC(O)CO

> <InChI_Code_QSARr>
InChI=1S/C3H8O2/c1-3(5)2-4/h3-5H,2H2,1H3

> <InChI Key_QSARr>
DNIAPMSPPWPWGF-UHFFFAOYSA-N

> <Salt_Solvent>
?

> <BP>
187.6

$$$$
100033
  -INDIGO-08031720192D

 16 16  0  0  0  0  0  0  0  0999 V2000
   -4.1569   -0.8000    0.0000 O   0  0  0  0  0  0  0  0  0  0  0  0
   -2.7713    0.0000    0.0000 N   0  0  0  0  0  0  0  0  0  0  0  0
   -1.3857   -0.8000    0.0000 N   0  0  0  0  0  0  0  0  0  0  0  0
   -1.3857   -2.4000    0.0000 C   0  0  0  0  0  0  0  0  0  0  0  0
   -2.9614   -2.1222    0.0000 H   0  0  0  0  0  0  0  0  0  0  0  0
   -1.9329   -3.9035    0.0000 H   0  0  0  0  0  0  0  0  0  0  0  0
   -0.0000   -3.2000    0.0000 C   0  0  0  0  0  0  0  0  0  0  0  0
   -1.0284   -4.4257    0.0000 H   0  0  0  0  0  0  0  0  0  0  0  0
    1.0285   -4.4257    0.0000 H   0  0  0  0  0  0  0  0  0  0  0  0
    1.3856   -2.4000    0.0000 O   0  0  0  0  0  0  0  0  0  0  0  0
    1.3856   -0.8000    0.0000 C   0  0  0  0  0  0  0  0  0  0  0  0
    2.9613   -1.0778    0.0000 H   0  0  0  0  0  0  0  0  0  0  0  0
    1.9328    0.7035    0.0000 H   0  0  0  0  0  0  0  0  0  0  0  0
   -0.0000    0.0000    0.0000 C   0  0  0  0  0  0  0  0  0  0  0  0
    1.0285    1.2257    0.0000 H   0  0  0  0  0  0  0  0  0  0  0  0
   -1.0284    1.2257    0.0000 H   0  0  0  0  0  0  0  0  0  0  0  0
  1  2  2  0  0  0  0
  2  3  1  0  0  0  0
  3  4  1  0  0  0  0
  4  5  1  0  0  0  0
  4  6  1  0  0  0  0
  4  7  1  0  0  0  0
  7  8  1  0  0  0  0
  7  9  1  0  0  0  0
  7 10  1  0  0  0  0
 10 11  1  0  0  0  0
 11 12  1  0  0  0  0
 11 13  1  0  0  0  0
 11 14  1  0  0  0  0
 14  3  1  0  0  0  0
 14 15  1  0  0  0  0
 14 16  1  0  0  0  0
M  END
> <ChemID>
100033

> <source_casrn>
59-89-2

> <CAS>
59-89-2

> <SMILES>
O=NN1CCOCC1

> <NAME>
N-NITROSOMORPHOLINE

> <preferred_name>
N-Nitrosomorpholine

> <iupac>
4-nitrosomorpholine

> <MPID>
19122

> <dsstox_substance_id>
DTXSID4021056

> <Canonical_QSARr>
O=NN1CCOCC1

> <InChI_Code_QSARr>
InChI=1S/C4H8N2O2/c7-5-6-1-3-8-4-2-6/h1-4H2

> <InChI Key_QSARr>
ZKXDGKXYMTYWTB-UHFFFAOYSA-N

> <Salt_Solvent>
?

> <BP>
225.0

$$$$
100038
  -INDIGO-08031720192D

 15 14  0  0  0  0  0  0  0  0999 V2000
    1.3857    0.8000    0.0000 O   0  0  0  0  0  0  0  0  0  0  0  0
    2.7713    0.0000    0.0000 C   0  0  0  0  0  0  0  0  0  0  0  0
    2.1590   -1.4782    0.0000 H   0  0  0  0  0  0  0  0  0  0  0  0
    3.3835   -1.4782    0.0000 H   0  0  0  0  0  0  0  0  0  0  0  0
    4.1569    0.8000    0.0000 C   0  0  0  0  0  0  0  0  0  0  0  0
    5.5426    1.6000    0.0000 H   0  0  0  0  0  0  0  0  0  0  0  0
    5.5426    0.0000    0.0000 H   0  0  0  0  0  0  0  0  0  0  0  0
    4.1569    2.4000    0.0000 H   0  0  0  0  0  0  0  0  0  0  0  0
    0.0000    0.0000    0.0000 C   0  0  0  0  0  0  0  0  0  0  0  0
   -0.6122   -1.4782    0.0000 H   0  0  0  0  0  0  0  0  0  0  0  0
    0.6122   -1.4782    0.0000 H   0  0  0  0  0  0  0  0  0  0  0  0
   -1.3856    0.8000    0.0000 C   0  0  0  0  0  0  0  0  0  0  0  0
   -2.7713    1.6000    0.0000 H   0  0  0  0  0  0  0  0  0  0  0  0
   -2.7713    0.0000    0.0000 H   0  0  0  0  0  0  0  0  0  0  0  0
   -1.3856    2.4000    0.0000 H   0  0  0  0  0  0  0  0  0  0  0  0
  1  2  1  0  0  0  0
  2  3  1  0  0  0  0
  2  4  1  0  0  0  0
  2  5  1  0  0  0  0
  5  6  1  0  0  0  0
  5  7  1  0  0  0  0
  5  8  1  0  0  0  0
  1  9  1  0  0  0  0
  9 10  1  0  0  0  0
  9 11  1  0  0  0  0
  9 12  1  0  0  0  0
 12 13  1  0  0  0  0
 12 14  1  0  0  0  0
 12 15  1  0  0  0  0
M  END
> <ChemID>
100038

> <source_casrn>
60-29-7

> <CAS>
60-29-7

> <SMILES>
CCOCC

> <NAME>
DIETHYL ETHER

> <preferred_name>
Diethyl ether

> <iupac>
diethyl ether

> <MPID>
19126

> <dsstox_substance_id>
DTXSID3021720

> <Canonical_QSARr>
CCOCC

> <InChI_Code_QSARr>
InChI=1S/C4H10O/c1-3-5-4-2/h3-4H2,1-2H3

> <InChI Key_QSARr>
RTZKZFJDLAIYFH-UHFFFAOYSA-N

> <Salt_Solvent>
?

> <BP>
34.6

$$$$
100042
  -INDIGO-08031720192D

 13 13  0  0  0  0  0  0  0  0999 V2000
    2.4622    0.8000    0.0000 N   0  0  0  0  0  0  0  0  0  0  0  0
    3.7566    1.7405    0.0000 H   0  0  0  0  0  0  0  0  0  0  0  0
    0.9405    1.2944    0.0000 C   0  0  0  0  0  0  0  0  0  0  0  0
    0.4461    2.8161    0.0000 S   0  0  0  0  0  0  0  0  0  0  0  0
    0.0000    0.0000    0.0000 N   0  0  0  0  0  0  0  0  0  0  0  0
   -1.6000   -0.0000    0.0000 C   0  0  0  0  0  0  0  0  0  0  0  0
   -3.2000   -0.0000    0.0000 H   0  0  0  0  0  0  0  0  0  0  0  0
   -2.4000    1.3856    0.0000 H   0  0  0  0  0  0  0  0  0  0  0  0
   -2.4000   -1.3856    0.0000 H   0  0  0  0  0  0  0  0  0  0  0  0
    0.9405   -1.2944    0.0000 C   0  0  0  0  0  0  0  0  0  0  0  0
    0.4461   -2.8161    0.0000 H   0  0  0  0  0  0  0  0  0  0  0  0
    2.4622   -0.8000    0.0000 C   0  0  0  0  0  0  0  0  0  0  0  0
    3.7566   -1.7405    0.0000 H   0  0  0  0  0  0  0  0  0  0  0  0
  1  2  1  0  0  0  0
  1  3  1  0  0  0  0
  3  4  2  0  0  0  0
  3  5  1  0  0  0  0
  5  6  1  0  0  0  0
  6  7  1  0  0  0  0
  6  8  1  0  0  0  0
  6  9  1  0  0  0  0
  5 10  1  0  0  0  0
 10 11  1  0  0  0  0
 10 12  2  0  0  0  0
 12  1  1  0  0  0  0
 12 13  1  0  0  0  0
M  END
> <ChemID>
100042

> <source_casrn>
60-56-0

> <CAS>
60-56-0

> <SMILES>
CN1C=CNC1=S

> <NAME>
METHIMAZOLE

> <preferred_name>
Methimazole

> <iupac>
1-methyl-1,3-dihydro-2H-imidazole-2-thione

> <MPID>
19130

> <dsstox_substance_id>
DTXSID4020820

> <Canonical_QSARr>
CN1C=CNC1=S

> <InChI_Code_QSARr>
InChI=1S/C4H6N2S/c1-6-3-2-5-4(6)7/h2-3H,1H3,(H,5,7)

> <InChI Key_QSARr>
PMRYVIKBURPHAH-UHFFFAOYSA-N

> <Salt_Solvent>
?

> <BP>
280.0

$$$$
100046
  -INDIGO-08031720192D

 15 14  0  0  0  0  0  0  0  0999 V2000
    1.6000    0.0000    0.0000 O   0  0  0  0  0  0  0  0  0  0  0  0
    2.4000    1.3857    0.0000 C   0  0  0  0  0  0  0  0  0  0  0  0
    2.1912    2.9720    0.0000 H   0  0  0  0  0  0  0  0  0  0  0  0
    1.1306    2.3596    0.0000 H   0  0  0  0  0  0  0  0  0  0  0  0
    4.0001    1.3857    0.0000 C   0  0  0  0  0  0  0  0  0  0  0  0
    5.6000    1.3857    0.0000 H   0  0  0  0  0  0  0  0  0  0  0  0
    4.8000    2.7713    0.0000 H   0  0  0  0  0  0  0  0  0  0  0  0
    4.8000    0.0000    0.0000 H   0  0  0  0  0  0  0  0  0  0  0  0
    0.0000    0.0000    0.0000 S   0  0  0  0  0  0  0  0  0  0  0  0
   -1.6001    0.0000    0.0000 C   0  0  0  0  0  0  0  0  0  0  0  0
   -3.2000    0.0000    0.0000 H   0  0  0  0  0  0  0  0  0  0  0  0
   -2.4000   -1.3856    0.0000 H   0  0  0  0  0  0  0  0  0  0  0  0
   -2.4000    1.3857    0.0000 H   0  0  0  0  0  0  0  0  0  0  0  0
    0.0000    1.6000    0.0000 O   0  0  0  0  0  0  0  0  0  0  0  0
    0.0000   -1.6000    0.0000 O   0  0  0  0  0  0  0  0  0  0  0  0
  1  2  1  0  0  0  0
  2  3  1  0  0  0  0
  2  4  1  0  0  0  0
  2  5  1  0  0  0  0
  5  6  1  0  0  0  0
  5  7  1  0  0  0  0
  5  8  1  0  0  0  0
  1  9  1  0  0  0  0
  9 10  1  0  0  0  0
 10 11  1  0  0  0  0
 10 12  1  0  0  0  0
 10 13  1  0  0  0  0
  9 14  2  0  0  0  0
  9 15  2  0  0  0  0
M  END
> <ChemID>
100046

> <source_casrn>
62-50-0

> <CAS>
62-50-0

> <SMILES>
CCOS(C)(=O)=O

> <NAME>
ETHYL METHANESULFONATE

> <preferred_name>
Ethyl methanesulfonate

> <iupac>
ethyl methanesulfonate

> <MPID>
19134

> <dsstox_substance_id>
DTXSID6025309

> <Canonical_QSARr>
CCOS(C)(=O)=O

> <InChI_Code_QSARr>
InChI=1S/C3H8O3S/c1-3-6-7(2,4)5/h3H2,1-2H3

> <InChI Key_QSARr>
PLUBXMRUUVWRLT-UHFFFAOYSA-N

> <Salt_Solvent>
?

> <BP>
213.5

$$$$
100050
  -INDIGO-08031720192D

 26 27  0  0  0  0  0  0  0  0999 V2000
   -4.8000    0.0001    0.0000 O   0  0  0  0  0  0  0  0  0  0  0  0
   -3.9999    1.3856    0.0000 C   0  0  0  0  0  0  0  0  0  0  0  0
   -2.3999    1.3856    0.0000 O   0  0  0  0  0  0  0  0  0  0  0  0
   -1.5999    0.0001    0.0000 C   0  0  0  0  0  0  0  0  0  0  0  0
   -0.0001    0.0001    0.0000 C   0  0  0  0  0  0  0  0  0  0  0  0
    0.7999   -1.3856    0.0000 C   0  0  0  0  0  0  0  0  0  0  0  0
    2.4000   -1.3856    0.0000 C   0  0  0  0  0  0  0  0  0  0  0  0
    3.2000   -2.7712    0.0000 H   0  0  0  0  0  0  0  0  0  0  0  0
    3.2000    0.0001    0.0000 C   0  0  0  0  0  0  0  0  0  0  0  0
    4.8000    0.0001    0.0000 H   0  0  0  0  0  0  0  0  0  0  0  0
    2.4000    1.3856    0.0000 C   0  0  0  0  0  0  0  0  0  0  0  0
    3.2000    2.7712    0.0000 H   0  0  0  0  0  0  0  0  0  0  0  0
    0.7999    1.3856    0.0000 C   0  0  0  0  0  0  0  0  0  0  0  0
   -0.0001    2.7713    0.0000 H   0  0  0  0  0  0  0  0  0  0  0  0
   -0.0001   -2.7712    0.0000 C   0  0  0  0  0  0  0  0  0  0  0  0
    0.7999   -4.1569    0.0000 H   0  0  0  0  0  0  0  0  0  0  0  0
   -1.5999   -2.7712    0.0000 C   0  0  0  0  0  0  0  0  0  0  0  0
   -2.3999   -4.1569    0.0000 H   0  0  0  0  0  0  0  0  0  0  0  0
   -2.3999   -1.3856    0.0000 C   0  0  0  0  0  0  0  0  0  0  0  0
   -3.9999   -1.3856    0.0000 H   0  0  0  0  0  0  0  0  0  0  0  0
   -4.8000    2.7713    0.0000 N   0  0  0  0  0  0  0  0  0  0  0  0
   -3.9999    4.1569    0.0000 H   0  0  0  0  0  0  0  0  0  0  0  0
   -6.4000    2.7713    0.0000 C   0  0  0  0  0  0  0  0  0  0  0  0
   -8.0000    2.7713    0.0000 H   0  0  0  0  0  0  0  0  0  0  0  0
   -7.2000    4.1569    0.0000 H   0  0  0  0  0  0  0  0  0  0  0  0
   -7.2000    1.3856    0.0000 H   0  0  0  0  0  0  0  0  0  0  0  0
  1  2  2  0  0  0  0
  2  3  1  0  0  0  0
  3  4  1  0  0  0  0
  4  5  1  0  0  0  0
  5  6  1  0  0  0  0
  6  7  2  0  0  0  0
  7  8  1  0  0  0  0
  7  9  1  0  0  0  0
  9 10  1  0  0  0  0
  9 11  2  0  0  0  0
 11 12  1  0  0  0  0
 11 13  1  0  0  0  0
 13  5  2  0  0  0  0
 13 14  1  0  0  0  0
  6 15  1  0  0  0  0
 15 16  1  0  0  0  0
 15 17  2  0  0  0  0
 17 18  1  0  0  0  0
 17 19  1  0  0  0  0
 19  4  2  0  0  0  0
 19 20  1  0  0  0  0
  2 21  1  0  0  0  0
 21 22  1  0  0  0  0
 21 23  1  0  0  0  0
 23 24  1  0  0  0  0
 23 25  1  0  0  0  0
 23 26  1  0  0  0  0
M  END
> <ChemID>
100050

> <source_casrn>
63-25-2

> <CAS>
63-25-2

> <SMILES>
CNC(=O)Oc1cccc2ccccc21

> <NAME>
1-NAPHTHYL-N-METHYLCARBAMATE

> <preferred_name>
Carbaryl

> <iupac>
naphthalen-1-yl methylcarbamate

> <MPID>
19138

> <dsstox_substance_id>
DTXSID9020247

> <Canonical_QSARr>
CNC(=O)Oc1cccc2ccccc21

> <InChI_Code_QSARr>
InChI=1S/C12H11NO2/c1-13-12(14)15-11-8-4-6-9-5-2-3-7-10(9)11/h2-8H,1H3,(H,13,14)

> <InChI Key_QSARr>
CVXBEEMKQHEXEN-UHFFFAOYSA-N

> <Salt_Solvent>
?

> <BP>
315.0

$$$$
100054
  -INDIGO-08031720192D

  9  8  0  0  0  0  0  0  0  0999 V2000
    1.6000    0.0000    0.0000 C   0  0  0  0  0  0  0  0  0  0  0  0
    3.2000    0.0000    0.0000 H   0  0  0  0  0  0  0  0  0  0  0  0
    2.4000   -1.3856    0.0000 H   0  0  0  0  0  0  0  0  0  0  0  0
    2.4000    1.3856    0.0000 H   0  0  0  0  0  0  0  0  0  0  0  0
   -0.0000    0.0000    0.0000 C   0  0  0  0  0  0  0  0  0  0  0  0
   -0.2089   -1.5863    0.0000 H   0  0  0  0  0  0  0  0  0  0  0  0
   -1.2694   -0.9740    0.0000 H   0  0  0  0  0  0  0  0  0  0  0  0
   -0.8000    1.3856    0.0000 O   0  0  0  0  0  0  0  0  0  0  0  0
   -2.4000    1.3856    0.0000 H   0  0  0  0  0  0  0  0  0  0  0  0
  1  2  1  0  0  0  0
  1  3  1  0  0  0  0
  1  4  1  0  0  0  0
  1  5  1  0  0  0  0
  5  6  1  0  0  0  0
  5  7  1  0  0  0  0
  5  8  1  0  0  0  0
  8  9  1  0  0  0  0
M  END
> <ChemID>
100054

> <source_casrn>
64-17-5

> <CAS>
64-17-5

> <SMILES>
CCO

> <NAME>
ETHANOL

> <preferred_name>
Ethanol

> <iupac>
ethanol

> <MPID>
19142

> <dsstox_substance_id>
DTXSID9020584

> <Canonical_QSARr>
CCO

> <InChI_Code_QSARr>
InChI=1S/C2H6O/c1-2-3/h3H,2H2,1H3

> <InChI Key_QSARr>
LFQSCWFLJHTTHZ-UHFFFAOYSA-N

> <Salt_Solvent>
?

> <BP>
78.2

$$$$
100058
  -INDIGO-08031720192D

 15 15  0  0  0  0  0  0  0  0999 V2000
    2.7713   -0.0000    0.0000 O   0  0  0  0  0  0  0  0  0  0  0  0
    4.1569    0.8000    0.0000 H   0  0  0  0  0  0  0  0  0  0  0  0
    1.3856    0.8000    0.0000 C   0  0  0  0  0  0  0  0  0  0  0  0
    1.3856    2.4000    0.0000 O   0  0  0  0  0  0  0  0  0  0  0  0
    0.0001   -0.0000    0.0000 C   0  0  0  0  0  0  0  0  0  0  0  0
    0.0001   -1.6000    0.0000 C   0  0  0  0  0  0  0  0  0  0  0  0
    1.3856   -2.4000    0.0000 H   0  0  0  0  0  0  0  0  0  0  0  0
   -1.3856   -2.4000    0.0000 C   0  0  0  0  0  0  0  0  0  0  0  0
   -1.3856   -4.0000    0.0000 H   0  0  0  0  0  0  0  0  0  0  0  0
   -2.7712   -1.6000    0.0000 C   0  0  0  0  0  0  0  0  0  0  0  0
   -4.1569   -2.4000    0.0000 H   0  0  0  0  0  0  0  0  0  0  0  0
   -2.7712   -0.0000    0.0000 C   0  0  0  0  0  0  0  0  0  0  0  0
   -4.1569    0.8000    0.0000 H   0  0  0  0  0  0  0  0  0  0  0  0
   -1.3856    0.8000    0.0000 C   0  0  0  0  0  0  0  0  0  0  0  0
   -1.3856    2.4000    0.0000 H   0  0  0  0  0  0  0  0  0  0  0  0
  1  2  1  0  0  0  0
  1  3  1  0  0  0  0
  3  4  2  0  0  0  0
  3  5  1  0  0  0  0
  5  6  1  0  0  0  0
  6  7  1  0  0  0  0
  6  8  2  0  0  0  0
  8  9  1  0  0  0  0
  8 10  1  0  0  0  0
 10 11  1  0  0  0  0
 10 12  2  0  0  0  0
 12 13  1  0  0  0  0
 12 14  1  0  0  0  0
 14  5  2  0  0  0  0
 14 15  1  0  0  0  0
M  END
> <ChemID>
100058

> <source_casrn>
65-85-0

> <CAS>
65-85-0

> <SMILES>
OC(=O)c1ccccc1

> <NAME>
BENZOIC ACID

> <preferred_name>
Benzoic acid

> <iupac>
benzoic acid

> <MPID>
19146

> <dsstox_substance_id>
DTXSID6020143

> <Canonical_QSARr>
OC(=O)c1ccccc1

> <InChI_Code_QSARr>
InChI=1S/C7H6O2/c8-7(9)6-4-2-1-3-5-6/h1-5H,(H,8,9)

> <InChI Key_QSARr>
WPYMKLBDIGXBTP-UHFFFAOYSA-N

> <Salt_Solvent>
?

> <BP>
249.2

$$$$
100062
  -INDIGO-08031720192D

 15 15  0  0  0  0  0  0  0  0999 V2000
   -2.5323   -0.5382    0.0000 C   0  0  0  0  0  0  0  0  0  0  0  0
   -1.4617    0.6508    0.0000 C   0  0  0  0  0  0  0  0  0  0  0  0
   -1.7944    2.2158    0.0000 H   0  0  0  0  0  0  0  0  0  0  0  0
   -0.0000    0.0000    0.0000 C   0  0  0  0  0  0  0  0  0  0  0  0
    1.3856    0.8000    0.0000 C   0  0  0  0  0  0  0  0  0  0  0  0
    2.7713    1.6000    0.0000 H   0  0  0  0  0  0  0  0  0  0  0  0
    2.7713    0.0000    0.0000 H   0  0  0  0  0  0  0  0  0  0  0  0
    1.3856    2.4000    0.0000 H   0  0  0  0  0  0  0  0  0  0  0  0
   -0.1672   -1.5912    0.0000 N   0  0  0  0  0  0  0  0  0  0  0  0
    1.0218   -2.6618    0.0000 H   0  0  0  0  0  0  0  0  0  0  0  0
   -1.7323   -1.9239    0.0000 N   0  0  0  0  0  0  0  0  0  0  0  0
   -4.1235   -0.3710    0.0000 C   0  0  0  0  0  0  0  0  0  0  0  0
   -5.7148   -0.2038    0.0000 H   0  0  0  0  0  0  0  0  0  0  0  0
   -5.0639   -1.6655    0.0000 H   0  0  0  0  0  0  0  0  0  0  0  0
   -4.7743    1.0906    0.0000 H   0  0  0  0  0  0  0  0  0  0  0  0
  1  2  1  0  0  0  0
  2  3  1  0  0  0  0
  2  4  2  0  0  0  0
  4  5  1  0  0  0  0
  5  6  1  0  0  0  0
  5  7  1  0  0  0  0
  5  8  1  0  0  0  0
  4  9  1  0  0  0  0
  9 10  1  0  0  0  0
  9 11  1  0  0  0  0
 11  1  2  0  0  0  0
  1 12  1  0  0  0  0
 12 13  1  0  0  0  0
 12 14  1  0  0  0  0
 12 15  1  0  0  0  0
M  END
> <ChemID>
100062

> <source_casrn>
67-51-6

> <CAS>
67-51-6

> <SMILES>
Cc1cc(C)[nH][n]1

> <NAME>
1H-PYRAZOLE, 3,5-DIMETHYL-

> <preferred_name>
3,5-Dimethylpyrazole

> <iupac>


> <MPID>
19150

> <dsstox_substance_id>
DTXSID5058777

> <Canonical_QSARr>
Cc1cc(C)[nH][n]1

> <InChI_Code_QSARr>
InChI=1S/C5H8N2/c1-4-3-5(2)7-6-4/h3H,1-2H3,(H,6,7)

> <InChI Key_QSARr>
SDXAWLJRERMRKF-UHFFFAOYSA-N

> <Salt_Solvent>
?

> <BP>
218.0

$$$$
100066
  -INDIGO-08031720192D

 10  9  0  0  0  0  0  0  0  0999 V2000
    1.3856    0.8000    0.0000 C   0  0  0  0  0  0  0  0  0  0  0  0
    2.7713    1.6000    0.0000 H   0  0  0  0  0  0  0  0  0  0  0  0
    2.7713    0.0000    0.0000 H   0  0  0  0  0  0  0  0  0  0  0  0
    1.3856    2.4000    0.0000 H   0  0  0  0  0  0  0  0  0  0  0  0
    0.0000    0.0000    0.0000 C   0  0  0  0  0  0  0  0  0  0  0  0
   -1.3856    0.8000    0.0000 C   0  0  0  0  0  0  0  0  0  0  0  0
   -2.7713    1.6000    0.0000 H   0  0  0  0  0  0  0  0  0  0  0  0
   -2.7713    0.0000    0.0000 H   0  0  0  0  0  0  0  0  0  0  0  0
   -1.3856    2.4000    0.0000 H   0  0  0  0  0  0  0  0  0  0  0  0
    0.0000   -1.6000    0.0000 O   0  0  0  0  0  0  0  0  0  0  0  0
  1  2  1  0  0  0  0
  1  3  1  0  0  0  0
  1  4  1  0  0  0  0
  1  5  1  0  0  0  0
  5  6  1  0  0  0  0
  6  7  1  0  0  0  0
  6  8  1  0  0  0  0
  6  9  1  0  0  0  0
  5 10  2  0  0  0  0
M  END
> <ChemID>
100066

> <source_casrn>
67-64-1|666-52-4

> <CAS>
67-64-1|666-52-4

> <SMILES>
CC(C)=O

> <NAME>
ACETONE, 1,1,1,3,3,3-HEXADEUTERO-2-PROPANONE

> <preferred_name>
Acetone

> <iupac>
propan-2-one

> <MPID>
19154|22144

> <dsstox_substance_id>
DTXSID8021482|DTXSID20216767

> <Canonical_QSARr>
CC(C)=O

> <InChI_Code_QSARr>
InChI=1S/C3H6O/c1-3(2)4/h1-2H3

> <InChI Key_QSARr>
CSCPPACGZOOCGX-UHFFFAOYSA-N

> <Salt_Solvent>
?

> <BP>
55.75

$$$$
100070
  -INDIGO-08031720192D

 12 11  0  0  0  0  0  0  0  0999 V2000
    1.3856    0.8000    0.0000 C   0  0  0  0  0  0  0  0  0  0  0  0
    2.7713    1.6000    0.0000 H   0  0  0  0  0  0  0  0  0  0  0  0
    2.7713    0.0000    0.0000 H   0  0  0  0  0  0  0  0  0  0  0  0
    1.3856    2.4000    0.0000 H   0  0  0  0  0  0  0  0  0  0  0  0
    0.0000    0.0000    0.0000 N   0  0  0  0  0  0  0  0  0  0  0  0
    0.0000   -1.6000    0.0000 C   0  0  0  0  0  0  0  0  0  0  0  0
   -1.3856   -2.4000    0.0000 H   0  0  0  0  0  0  0  0  0  0  0  0
    1.3856   -2.4000    0.0000 O   0  0  0  0  0  0  0  0  0  0  0  0
   -1.3856    0.8000    0.0000 C   0  0  0  0  0  0  0  0  0  0  0  0
   -2.7713    1.6000    0.0000 H   0  0  0  0  0  0  0  0  0  0  0  0
   -2.7713    0.0000    0.0000 H   0  0  0  0  0  0  0  0  0  0  0  0
   -1.3856    2.4000    0.0000 H   0  0  0  0  0  0  0  0  0  0  0  0
  1  2  1  0  0  0  0
  1  3  1  0  0  0  0
  1  4  1  0  0  0  0
  1  5  1  0  0  0  0
  5  6  1  0  0  0  0
  6  7  1  0  0  0  0
  6  8  2  0  0  0  0
  5  9  1  0  0  0  0
  9 10  1  0  0  0  0
  9 11  1  0  0  0  0
  9 12  1  0  0  0  0
M  END
> <ChemID>
100070

> <source_casrn>
68-12-2

> <CAS>
68-12-2

> <SMILES>
CN(C)C=O

> <NAME>
N,N'-DIMETHYLFORMAMIDE

> <preferred_name>
N,N-Dimethylformamide

> <iupac>
N,N-dimethylformamide

> <MPID>
19158

> <dsstox_substance_id>
DTXSID6020515

> <Canonical_QSARr>
CN(C)C=O

> <InChI_Code_QSARr>
InChI=1S/C3H7NO/c1-4(2)3-5/h3H,1-2H3

> <InChI Key_QSARr>
ZMXDDKWLCZADIW-UHFFFAOYSA-N

> <Salt_Solvent>
?

> <BP>
153.0

$$$$
100074
  -INDIGO-08031720192D

 15 14  0  0  0  0  0  0  0  0999 V2000
    2.7713   -0.0000    0.0000 C   0  0  0  0  0  0  0  0  0  0  0  0
    4.1569   -0.8000    0.0000 H   0  0  0  0  0  0  0  0  0  0  0  0
    4.1569    0.8000    0.0000 H   0  0  0  0  0  0  0  0  0  0  0  0
    2.7713   -1.6000    0.0000 H   0  0  0  0  0  0  0  0  0  0  0  0
    1.3856    0.8000    0.0000 C   0  0  0  0  0  0  0  0  0  0  0  0
    0.7734    2.2782    0.0000 H   0  0  0  0  0  0  0  0  0  0  0  0
    1.9979    2.2782    0.0000 H   0  0  0  0  0  0  0  0  0  0  0  0
    0.0001   -0.0000    0.0000 C   0  0  0  0  0  0  0  0  0  0  0  0
    0.6123   -1.4782    0.0000 H   0  0  0  0  0  0  0  0  0  0  0  0
   -0.6123   -1.4782    0.0000 H   0  0  0  0  0  0  0  0  0  0  0  0
   -1.3856    0.8000    0.0000 C   0  0  0  0  0  0  0  0  0  0  0  0
   -1.9979    2.2782    0.0000 H   0  0  0  0  0  0  0  0  0  0  0  0
   -0.7734    2.2782    0.0000 H   0  0  0  0  0  0  0  0  0  0  0  0
   -2.7713   -0.0000    0.0000 O   0  0  0  0  0  0  0  0  0  0  0  0
   -4.1569    0.8000    0.0000 H   0  0  0  0  0  0  0  0  0  0  0  0
  1  2  1  0  0  0  0
  1  3  1  0  0  0  0
  1  4  1  0  0  0  0
  1  5  1  0  0  0  0
  5  6  1  0  0  0  0
  5  7  1  0  0  0  0
  5  8  1  0  0  0  0
  8  9  1  0  0  0  0
  8 10  1  0  0  0  0
  8 11  1  0  0  0  0
 11 12  1  0  0  0  0
 11 13  1  0  0  0  0
 11 14  1  0  0  0  0
 14 15  1  0  0  0  0
M  END
> <ChemID>
100074

> <source_casrn>
71-36-3|4712-38-3

> <CAS>
71-36-3|4712-38-3

> <SMILES>
CCCCO

> <NAME>
1-BUTANOL, 1-BUTANOL (D)

> <preferred_name>
1-Butanol

> <iupac>
butan-1-ol

> <MPID>
19162|23679

> <dsstox_substance_id>
DTXSID1021740|DTXSID40197044

> <Canonical_QSARr>
CCCCO

> <InChI_Code_QSARr>
InChI=1S/C4H10O/c1-2-3-4-5/h5H,2-4H2,1H3

> <InChI Key_QSARr>
LRHPLDYGYMQRHN-UHFFFAOYSA-N

> <Salt_Solvent>
?

> <BP>
117.85

$$$$
100078
  -INDIGO-08031720192D

 36 37  0  0  0  0  0  0  0  0999 V2000
   -1.0284    1.2257    0.0000 Cl  0  0  0  0  0  0  0  0  0  0  0  0
    0.5472    1.5035    0.0000 C   0  0  0  0  0  0  0  0  0  0  0  0
   -0.0000    0.0000    0.0000 C   0  0  0  0  0  0  0  0  0  0  0  0
   -0.5473   -1.5035    0.0000 H   0  0  0  0  0  0  0  0  0  0  0  0
    1.5034   -0.5472    0.0000 C   0  0  0  0  0  0  0  0  0  0  0  0
    1.7814   -2.1229    0.0000 C   0  0  0  0  0  0  0  0  0  0  0  0
    0.5556   -3.1514    0.0000 H   0  0  0  0  0  0  0  0  0  0  0  0
    3.2849   -2.6702    0.0000 C   0  0  0  0  0  0  0  0  0  0  0  0
    3.5627   -4.2458    0.0000 H   0  0  0  0  0  0  0  0  0  0  0  0
    4.5105   -1.6417    0.0000 C   0  0  0  0  0  0  0  0  0  0  0  0
    6.0139   -2.1889    0.0000 O   0  0  0  0  0  0  0  0  0  0  0  0
    6.2920   -3.7646    0.0000 C   0  0  0  0  0  0  0  0  0  0  0  0
    7.7954   -4.3119    0.0000 H   0  0  0  0  0  0  0  0  0  0  0  0
    6.5697   -5.3403    0.0000 H   0  0  0  0  0  0  0  0  0  0  0  0
    7.5176   -2.7362    0.0000 H   0  0  0  0  0  0  0  0  0  0  0  0
    4.2327   -0.0660    0.0000 C   0  0  0  0  0  0  0  0  0  0  0  0
    5.4583    0.9624    0.0000 H   0  0  0  0  0  0  0  0  0  0  0  0
    2.7293    0.4812    0.0000 C   0  0  0  0  0  0  0  0  0  0  0  0
    2.4512    2.0569    0.0000 H   0  0  0  0  0  0  0  0  0  0  0  0
   -1.5999    0.0000    0.0000 C   0  0  0  0  0  0  0  0  0  0  0  0
   -2.3999    1.3857    0.0000 C   0  0  0  0  0  0  0  0  0  0  0  0
   -1.5999    2.7712    0.0000 H   0  0  0  0  0  0  0  0  0  0  0  0
   -4.0000    1.3857    0.0000 C   0  0  0  0  0  0  0  0  0  0  0  0
   -4.8000    2.7712    0.0000 H   0  0  0  0  0  0  0  0  0  0  0  0
   -4.8000    0.0000    0.0000 C   0  0  0  0  0  0  0  0  0  0  0  0
   -6.3999    0.0000    0.0000 O   0  0  0  0  0  0  0  0  0  0  0  0
   -7.2001   -1.3857    0.0000 C   0  0  0  0  0  0  0  0  0  0  0  0
   -8.8000   -1.3857    0.0000 H   0  0  0  0  0  0  0  0  0  0  0  0
   -8.0000   -2.7712    0.0000 H   0  0  0  0  0  0  0  0  0  0  0  0
   -8.0000    0.0000    0.0000 H   0  0  0  0  0  0  0  0  0  0  0  0
   -4.0000   -1.3857    0.0000 C   0  0  0  0  0  0  0  0  0  0  0  0
   -4.8000   -2.7712    0.0000 H   0  0  0  0  0  0  0  0  0  0  0  0
   -2.3999   -1.3857    0.0000 C   0  0  0  0  0  0  0  0  0  0  0  0
   -1.5999   -2.7712    0.0000 H   0  0  0  0  0  0  0  0  0  0  0  0
    1.0944    3.0070    0.0000 Cl  0  0  0  0  0  0  0  0  0  0  0  0
   -0.4812    2.7292    0.0000 Cl  0  0  0  0  0  0  0  0  0  0  0  0
  1  2  1  0  0  0  0
  2  3  1  0  0  0  0
  3  4  1  0  0  0  0
  3  5  1  0  0  0  0
  5  6  1  0  0  0  0
  6  7  1  0  0  0  0
  6  8  2  0  0  0  0
  8  9  1  0  0  0  0
  8 10  1  0  0  0  0
 10 11  1  0  0  0  0
 11 12  1  0  0  0  0
 12 13  1  0  0  0  0
 12 14  1  0  0  0  0
 12 15  1  0  0  0  0
 10 16  2  0  0  0  0
 16 17  1  0  0  0  0
 16 18  1  0  0  0  0
 18  5  2  0  0  0  0
 18 19  1  0  0  0  0
  3 20  1  0  0  0  0
 20 21  1  0  0  0  0
 21 22  1  0  0  0  0
 21 23  2  0  0  0  0
 23 24  1  0  0  0  0
 23 25  1  0  0  0  0
 25 26  1  0  0  0  0
 26 27  1  0  0  0  0
 27 28  1  0  0  0  0
 27 29  1  0  0  0  0
 27 30  1  0  0  0  0
 25 31  2  0  0  0  0
 31 32  1  0  0  0  0
 31 33  1  0  0  0  0
 33 20  2  0  0  0  0
 33 34  1  0  0  0  0
  2 35  1  0  0  0  0
  2 36  1  0  0  0  0
M  END
> <ChemID>
100078

> <source_casrn>
72-43-5

> <CAS>
72-43-5

> <SMILES>
COc1ccc(cc1)C(c1ccc(cc1)OC)C(Cl)(Cl)Cl

> <NAME>
METHOXYCHLOR

> <preferred_name>
Methoxychlor

> <iupac>
1,1'-(2,2,2-trichloroethane-1,1-diyl)bis(4-methoxybenzene)

> <MPID>
19166

> <dsstox_substance_id>
DTXSID9020827

> <Canonical_QSARr>
COc1ccc(cc1)C(c1ccc(cc1)OC)C(Cl)(Cl)Cl

> <InChI_Code_QSARr>
InChI=1S/C16H15Cl3O2/c1-20-13-7-3-11(4-8-13)15(16(17,18)19)12-5-9-14(21-2)10-6-12/h3-10,15H,1-2H3

> <InChI Key_QSARr>
IAKOZHOLGAGEJT-UHFFFAOYSA-N

> <Salt_Solvent>
?

> <BP>
346.0

$$$$
100082
  -INDIGO-08031720192D

  5  4  0  0  0  0  0  0  0  0999 V2000
    0.0000    0.0000    0.0000 C   0  0  0  0  0  0  0  0  0  0  0  0
    0.8000    1.3856    0.0000 H   0  0  0  0  0  0  0  0  0  0  0  0
   -1.3856    0.8000    0.0000 H   0  0  0  0  0  0  0  0  0  0  0  0
    1.3856   -0.8000    0.0000 H   0  0  0  0  0  0  0  0  0  0  0  0
   -0.8000   -1.3856    0.0000 H   0  0  0  0  0  0  0  0  0  0  0  0
  1  2  1  0  0  0  0
  1  3  1  0  0  0  0
  1  4  1  0  0  0  0
  1  5  1  0  0  0  0
M  END
> <ChemID>
100082

> <source_casrn>
74-82-8

> <CAS>
74-82-8

> <SMILES>
C

> <NAME>
METHANE

> <preferred_name>
Methane

> <iupac>
methane

> <MPID>
19170

> <dsstox_substance_id>
DTXSID8025545

> <Canonical_QSARr>
C

> <InChI_Code_QSARr>
InChI=1S/CH4/h1H4

> <InChI Key_QSARr>
VNWKTOKETHGBQD-UHFFFAOYSA-N

> <Salt_Solvent>
?

> <BP>
-161.5

$$$$
100086
  -INDIGO-08031720192D

  4  3  0  0  0  0  0  0  0  0999 V2000
    0.0000    0.0000    0.0000 C   0  0  0  0  0  0  0  0  0  0  0  0
    1.6000    0.0000    0.0000 H   0  0  0  0  0  0  0  0  0  0  0  0
   -1.6000    0.0000    0.0000 C   0  0  0  0  0  0  0  0  0  0  0  0
   -3.2000    0.0000    0.0000 H   0  0  0  0  0  0  0  0  0  0  0  0
  1  2  1  0  0  0  0
  1  3  3  0  0  0  0
  3  4  1  0  0  0  0
M  END
> <ChemID>
100086

> <source_casrn>
74-86-2

> <CAS>
74-86-2

> <SMILES>
C#C

> <NAME>
ACETYLENE

> <preferred_name>
Ethyne

> <iupac>
ethyne

> <MPID>
19174

> <dsstox_substance_id>
DTXSID6026379

> <Canonical_QSARr>
C#C

> <InChI_Code_QSARr>
InChI=1S/C2H2/c1-2/h1-2H

> <InChI Key_QSARr>
HSFWRNGVRCDJHI-UHFFFAOYSA-N

> <Salt_Solvent>
?

> <BP>
-84.7

$$$$
100090
  -INDIGO-08031720192D

  3  2  0  0  0  0  0  0  0  0999 V2000
   -1.6000    0.0000    0.0000 N   0  0  0  0  0  0  0  0  0  0  0  0
    0.0000    0.0000    0.0000 C   0  0  0  0  0  0  0  0  0  0  0  0
    1.6000    0.0000    0.0000 H   0  0  0  0  0  0  0  0  0  0  0  0
  1  2  3  0  0  0  0
  2  3  1  0  0  0  0
M  END
> <ChemID>
100090

> <source_casrn>
74-90-8

> <CAS>
74-90-8

> <SMILES>
C#N

> <NAME>
HYDROCYANIC ACID

> <preferred_name>
Hydrogen cyanide

> <iupac>
hydrocyanic acid

> <MPID>
19178

> <dsstox_substance_id>
DTXSID9024148

> <Canonical_QSARr>
C#N

> <InChI_Code_QSARr>
InChI=1S/CHN/c1-2/h1H

> <InChI Key_QSARr>
LELOWRISYMNNSU-UHFFFAOYSA-N

> <Salt_Solvent>
?

> <BP>
25.6

$$$$
100094
  -INDIGO-08031720192D

  5  4  0  0  0  0  0  0  0  0999 V2000
   -0.8000   -1.3856    0.0000 Cl  0  0  0  0  0  0  0  0  0  0  0  0
    0.0000    0.0000    0.0000 C   0  0  0  0  0  0  0  0  0  0  0  0
    0.8000    1.3856    0.0000 H   0  0  0  0  0  0  0  0  0  0  0  0
   -1.3856    0.8000    0.0000 H   0  0  0  0  0  0  0  0  0  0  0  0
    1.3856   -0.8000    0.0000 Br  0  0  0  0  0  0  0  0  0  0  0  0
  1  2  1  0  0  0  0
  2  3  1  0  0  0  0
  2  4  1  0  0  0  0
  2  5  1  0  0  0  0
M  END
> <ChemID>
100094

> <source_casrn>
74-97-5

> <CAS>
74-97-5

> <SMILES>
ClCBr

> <NAME>
CHLOROBROMOMETHANE

> <preferred_name>
Bromochloromethane

> <iupac>
bromo(chloro)methane

> <MPID>
19182

> <dsstox_substance_id>
DTXSID4021503

> <Canonical_QSARr>
ClCBr

> <InChI_Code_QSARr>
InChI=1S/CH2BrCl/c2-1-3/h1H2

> <InChI Key_QSARr>
JPOXNPPZZKNXOV-UHFFFAOYSA-N

> <Salt_Solvent>
?

> <BP>
68.0

$$$$
100098
  -INDIGO-08031720192D

  6  5  0  0  0  0  0  0  0  0999 V2000
   -0.0000    0.0000    0.0000 C   0  0  0  0  0  0  0  0  0  0  0  0
    0.8000    1.3856    0.0000 H   0  0  0  0  0  0  0  0  0  0  0  0
    0.8000   -1.3856    0.0000 H   0  0  0  0  0  0  0  0  0  0  0  0
   -1.6000    0.0000    0.0000 C   0  0  0  0  0  0  0  0  0  0  0  0
   -2.4000    1.3856    0.0000 H   0  0  0  0  0  0  0  0  0  0  0  0
   -2.4000   -1.3856    0.0000 Cl  0  0  0  0  0  0  0  0  0  0  0  0
  1  2  1  0  0  0  0
  1  3  1  0  0  0  0
  1  4  2  0  0  0  0
  4  5  1  0  0  0  0
  4  6  1  0  0  0  0
M  END
> <ChemID>
100098

> <source_casrn>
75-01-4

> <CAS>
75-01-4

> <SMILES>
C=CCl

> <NAME>
VINYLCHLORIDE

> <preferred_name>
Vinyl chloride

> <iupac>
chloroethene

> <MPID>
19186

> <dsstox_substance_id>
DTXSID8021434

> <Canonical_QSARr>
C=CCl

> <InChI_Code_QSARr>
InChI=1S/C2H3Cl/c1-2-3/h2H,1H2

> <InChI Key_QSARr>
BZHJMEDXRYGGRV-UHFFFAOYSA-N

> <Salt_Solvent>
?

> <BP>
-13.3

$$$$
100102
  -INDIGO-08031720192D

  6  5  0  0  0  0  0  0  0  0999 V2000
    0.0000    0.0000    0.0000 C   0  0  0  0  0  0  0  0  0  0  0  0
    1.6000   -0.0000    0.0000 H   0  0  0  0  0  0  0  0  0  0  0  0
    0.8000    1.3856    0.0000 H   0  0  0  0  0  0  0  0  0  0  0  0
    0.8000   -1.3856    0.0000 H   0  0  0  0  0  0  0  0  0  0  0  0
   -1.6000    0.0000    0.0000 C   0  0  0  0  0  0  0  0  0  0  0  0
   -3.2000    0.0000    0.0000 N   0  0  0  0  0  0  0  0  0  0  0  0
  1  2  1  0  0  0  0
  1  3  1  0  0  0  0
  1  4  1  0  0  0  0
  1  5  1  0  0  0  0
  5  6  3  0  0  0  0
M  END
> <ChemID>
100102

> <source_casrn>
75-05-8

> <CAS>
75-05-8

> <SMILES>
CC#N

> <NAME>
ACETONITRILE

> <preferred_name>
Acetonitrile

> <iupac>
acetonitrile

> <MPID>
19190

> <dsstox_substance_id>
DTXSID7020009

> <Canonical_QSARr>
CC#N

> <InChI_Code_QSARr>
InChI=1S/C2H3N/c1-2-3/h1H3

> <InChI Key_QSARr>
WEVYAHXRMPXWCK-UHFFFAOYSA-N

> <Salt_Solvent>
?

> <BP>
81.6

$$$$
100106
  -INDIGO-08031720192D

  5  4  0  0  0  0  0  0  0  0999 V2000
    0.0000    0.0000    0.0000 C   0  0  0  0  0  0  0  0  0  0  0  0
    0.8000    1.3856    0.0000 H   0  0  0  0  0  0  0  0  0  0  0  0
   -1.3856    0.8000    0.0000 H   0  0  0  0  0  0  0  0  0  0  0  0
    1.3856   -0.8000    0.0000 F   0  0  0  0  0  0  0  0  0  0  0  0
   -0.8000   -1.3856    0.0000 F   0  0  0  0  0  0  0  0  0  0  0  0
  1  2  1  0  0  0  0
  1  3  1  0  0  0  0
  1  4  1  0  0  0  0
  1  5  1  0  0  0  0
M  END
> <ChemID>
100106

> <source_casrn>
75-10-5

> <CAS>
75-10-5

> <SMILES>
FCF

> <NAME>
DIFLUOROMETHANE

> <preferred_name>
Methane, difluoro-

> <iupac>
difluoromethane

> <MPID>
19194

> <dsstox_substance_id>
DTXSID6029597

> <Canonical_QSARr>
FCF

> <InChI_Code_QSARr>
InChI=1S/CH2F2/c2-1-3/h1H2

> <InChI Key_QSARr>
RWRIWBAIICGTTQ-UHFFFAOYSA-N

> <Salt_Solvent>
?

> <BP>
-51.6

$$$$
100110
  -INDIGO-08031720192D

  9  8  0  0  0  0  0  0  0  0999 V2000
   -0.0000    0.0000    0.0000 C   0  0  0  0  0  0  0  0  0  0  0  0
    1.3856    0.8000    0.0000 H   0  0  0  0  0  0  0  0  0  0  0  0
   -0.0000    1.6000    0.0000 H   0  0  0  0  0  0  0  0  0  0  0  0
    1.3856   -0.8000    0.0000 H   0  0  0  0  0  0  0  0  0  0  0  0
   -1.3856   -0.8000    0.0000 S   0  0  0  0  0  0  0  0  0  0  0  0
   -2.7713    0.0000    0.0000 C   0  0  0  0  0  0  0  0  0  0  0  0
   -4.1569    0.8000    0.0000 H   0  0  0  0  0  0  0  0  0  0  0  0
   -4.1569   -0.8000    0.0000 H   0  0  0  0  0  0  0  0  0  0  0  0
   -2.7713    1.6000    0.0000 H   0  0  0  0  0  0  0  0  0  0  0  0
  1  2  1  0  0  0  0
  1  3  1  0  0  0  0
  1  4  1  0  0  0  0
  1  5  1  0  0  0  0
  5  6  1  0  0  0  0
  6  7  1  0  0  0  0
  6  8  1  0  0  0  0
  6  9  1  0  0  0  0
M  END
> <ChemID>
100110

> <source_casrn>
75-18-3

> <CAS>
75-18-3

> <SMILES>
CSC

> <NAME>
DIMETHYLSULFIDE

> <preferred_name>
Dimethyl sulfide

> <iupac>
dimethyl sulfide

> <MPID>
19198

> <dsstox_substance_id>
DTXSID9026398

> <Canonical_QSARr>
CSC

> <InChI_Code_QSARr>
InChI=1S/C2H6S/c1-3-2/h1-2H3

> <InChI Key_QSARr>
QMMFVYPAHWMCMS-UHFFFAOYSA-N

> <Salt_Solvent>
?

> <BP>
37.3

$$$$
100116
  -INDIGO-08031720192D

 11 10  0  0  0  0  0  0  0  0999 V2000
    1.3856    0.8000    0.0000 C   0  0  0  0  0  0  0  0  0  0  0  0
    2.7713    1.6000    0.0000 H   0  0  0  0  0  0  0  0  0  0  0  0
    2.7713    0.0000    0.0000 H   0  0  0  0  0  0  0  0  0  0  0  0
    1.3856    2.4000    0.0000 H   0  0  0  0  0  0  0  0  0  0  0  0
    0.0000    0.0000    0.0000 C   0  0  0  0  0  0  0  0  0  0  0  0
    0.6123   -1.4782    0.0000 H   0  0  0  0  0  0  0  0  0  0  0  0
   -1.3856    0.8000    0.0000 C   0  0  0  0  0  0  0  0  0  0  0  0
   -2.7713    1.6000    0.0000 H   0  0  0  0  0  0  0  0  0  0  0  0
   -2.7713    0.0000    0.0000 H   0  0  0  0  0  0  0  0  0  0  0  0
   -1.3856    2.4000    0.0000 H   0  0  0  0  0  0  0  0  0  0  0  0
   -0.6123   -1.4782    0.0000 Br  0  0  0  0  0  0  0  0  0  0  0  0
  1  2  1  0  0  0  0
  1  3  1  0  0  0  0
  1  4  1  0  0  0  0
  1  5  1  0  0  0  0
  5  6  1  0  0  0  0
  5  7  1  0  0  0  0
  7  8  1  0  0  0  0
  7  9  1  0  0  0  0
  7 10  1  0  0  0  0
  5 11  1  0  0  0  0
M  END
> <ChemID>
100116

> <source_casrn>
75-26-3

> <CAS>
75-26-3

> <SMILES>
CC(C)Br

> <NAME>
2-BROMOPROPANE

> <preferred_name>
2-Bromopropane

> <iupac>
2-bromopropane

> <MPID>
19202

> <dsstox_substance_id>
DTXSID7030197

> <Canonical_QSARr>
CC(C)Br

> <InChI_Code_QSARr>
InChI=1S/C3H7Br/c1-3(2)4/h3H,1-2H3

> <InChI Key_QSARr>
NAMYKGVDVNBCFQ-UHFFFAOYSA-N

> <Salt_Solvent>
?

> <BP>
59.5

$$$$
100120
  -INDIGO-08031720192D

 11 10  0  0  0  0  0  0  0  0999 V2000
    0.0000    0.0000    0.0000 C   0  0  0  0  0  0  0  0  0  0  0  0
    0.6123   -1.4782    0.0000 H   0  0  0  0  0  0  0  0  0  0  0  0
   -1.3856    0.8000    0.0000 C   0  0  0  0  0  0  0  0  0  0  0  0
   -2.7713    1.6000    0.0000 H   0  0  0  0  0  0  0  0  0  0  0  0
   -2.7713    0.0000    0.0000 H   0  0  0  0  0  0  0  0  0  0  0  0
   -1.3856    2.4000    0.0000 H   0  0  0  0  0  0  0  0  0  0  0  0
    1.3856    0.8000    0.0000 C   0  0  0  0  0  0  0  0  0  0  0  0
    2.7713    1.6000    0.0000 H   0  0  0  0  0  0  0  0  0  0  0  0
    2.7713    0.0000    0.0000 H   0  0  0  0  0  0  0  0  0  0  0  0
    1.3856    2.4000    0.0000 H   0  0  0  0  0  0  0  0  0  0  0  0
   -0.6123   -1.4782    0.0000 I   0  0  0  0  0  0  0  0  0  0  0  0
  1  2  1  0  0  0  0
  1  3  1  0  0  0  0
  3  4  1  0  0  0  0
  3  5  1  0  0  0  0
  3  6  1  0  0  0  0
  1  7  1  0  0  0  0
  7  8  1  0  0  0  0
  7  9  1  0  0  0  0
  7 10  1  0  0  0  0
  1 11  1  0  0  0  0
M  END
> <ChemID>
100120

> <source_casrn>
75-30-9

> <CAS>
75-30-9

> <SMILES>
CC(C)I

> <NAME>
2-IODOPROPANE

> <preferred_name>
Propane, 2-iodo-

> <iupac>
2-IODOPROPANE

> <MPID>
19206

> <dsstox_substance_id>
DTXSID4058788

> <Canonical_QSARr>
CC(C)I

> <InChI_Code_QSARr>
InChI=1S/C3H7I/c1-3(2)4/h3H,1-2H3

> <InChI Key_QSARr>
FMKOJHQHASLBPH-UHFFFAOYSA-N

> <Salt_Solvent>
?

> <BP>
89.5

$$$$
100124
  -INDIGO-08031720192D

  6  5  0  0  0  0  0  0  0  0999 V2000
   -0.0000    0.0000    0.0000 C   0  0  0  0  0  0  0  0  0  0  0  0
    0.8000    1.3856    0.0000 H   0  0  0  0  0  0  0  0  0  0  0  0
    0.8000   -1.3856    0.0000 H   0  0  0  0  0  0  0  0  0  0  0  0
   -1.6000    0.0000    0.0000 C   0  0  0  0  0  0  0  0  0  0  0  0
   -2.4000    1.3856    0.0000 Cl  0  0  0  0  0  0  0  0  0  0  0  0
   -2.4000   -1.3856    0.0000 Cl  0  0  0  0  0  0  0  0  0  0  0  0
  1  2  1  0  0  0  0
  1  3  1  0  0  0  0
  1  4  2  0  0  0  0
  4  5  1  0  0  0  0
  4  6  1  0  0  0  0
M  END
> <ChemID>
100124

> <source_casrn>
75-35-4

> <CAS>
75-35-4

> <SMILES>
C=C(Cl)Cl

> <NAME>
1,1-DICHLOROETHENE

> <preferred_name>
1,1-Dichloroethylene

> <iupac>
1,1-dichloroethene

> <MPID>
19210

> <dsstox_substance_id>
DTXSID8021438

> <Canonical_QSARr>
C=C(Cl)Cl

> <InChI_Code_QSARr>
InChI=1S/C2H2Cl2/c1-2(3)4/h1H2

> <InChI Key_QSARr>
LGXVIGDEPROXKC-UHFFFAOYSA-N

> <Salt_Solvent>
?

> <BP>
31.6

$$$$
100128
  -INDIGO-08031720192D

  5  4  0  0  0  0  0  0  0  0999 V2000
    0.0000    0.0000    0.0000 C   0  0  0  0  0  0  0  0  0  0  0  0
    0.8000    1.3856    0.0000 H   0  0  0  0  0  0  0  0  0  0  0  0
   -1.3856    0.8000    0.0000 Cl  0  0  0  0  0  0  0  0  0  0  0  0
    1.3856   -0.8000    0.0000 F   0  0  0  0  0  0  0  0  0  0  0  0
   -0.8000   -1.3856    0.0000 Cl  0  0  0  0  0  0  0  0  0  0  0  0
  1  2  1  0  0  0  0
  1  3  1  0  0  0  0
  1  4  1  0  0  0  0
  1  5  1  0  0  0  0
M  END
> <ChemID>
100128

> <source_casrn>
75-43-4

> <CAS>
75-43-4

> <SMILES>
FC(Cl)Cl

> <NAME>
DICHLOROFLUOROMETHANE

> <preferred_name>
Dichlorofluoromethane

> <iupac>
dichloro(fluoro)methane

> <MPID>
19214

> <dsstox_substance_id>
DTXSID7052498

> <Canonical_QSARr>
FC(Cl)Cl

> <InChI_Code_QSARr>
InChI=1S/CHCl2F/c2-1(3)4/h1H

> <InChI Key_QSARr>
UMNKXPULIDJLSU-UHFFFAOYSA-N

> <Salt_Solvent>
?

> <BP>
8.9

$$$$
100132
  -INDIGO-08031720192D

  5  4  0  0  0  0  0  0  0  0999 V2000
   -0.8000   -1.3856    0.0000 I   0  0  0  0  0  0  0  0  0  0  0  0
    0.0000    0.0000    0.0000 C   0  0  0  0  0  0  0  0  0  0  0  0
    0.8000    1.3856    0.0000 H   0  0  0  0  0  0  0  0  0  0  0  0
   -1.3856    0.8000    0.0000 I   0  0  0  0  0  0  0  0  0  0  0  0
    1.3856   -0.8000    0.0000 I   0  0  0  0  0  0  0  0  0  0  0  0
  1  2  1  0  0  0  0
  2  3  1  0  0  0  0
  2  4  1  0  0  0  0
  2  5  1  0  0  0  0
M  END
> <ChemID>
100132

> <source_casrn>
75-47-8

> <CAS>
75-47-8

> <SMILES>
IC(I)I

> <NAME>
IODOFORM

> <preferred_name>
Iodoform

> <iupac>
triiodomethane

> <MPID>
19218

> <dsstox_substance_id>
DTXSID4020743

> <Canonical_QSARr>
IC(I)I

> <InChI_Code_QSARr>
InChI=1S/CHI3/c2-1(3)4/h1H

> <InChI Key_QSARr>
OKJPEAGHQZHRQV-UHFFFAOYSA-N

> <Salt_Solvent>
?

> <BP>
218.0

$$$$
100136
  -INDIGO-08031720192D

 11 11  0  0  0  0  0  0  0  0999 V2000
    1.5035   -0.5472    0.0000 C   0  0  0  0  0  0  0  0  0  0  0  0
    3.0070   -1.0944    0.0000 H   0  0  0  0  0  0  0  0  0  0  0  0
    2.7292    0.4812    0.0000 H   0  0  0  0  0  0  0  0  0  0  0  0
    1.7814   -2.1229    0.0000 H   0  0  0  0  0  0  0  0  0  0  0  0
    0.0000   -0.0000    0.0000 C   0  0  0  0  0  0  0  0  0  0  0  0
    0.2779    1.5757    0.0000 H   0  0  0  0  0  0  0  0  0  0  0  0
   -1.6000   -0.0000    0.0000 C   0  0  0  0  0  0  0  0  0  0  0  0
   -1.8779    1.5757    0.0000 H   0  0  0  0  0  0  0  0  0  0  0  0
   -3.1035   -0.5472    0.0000 H   0  0  0  0  0  0  0  0  0  0  0  0
   -0.8000   -1.3856    0.0000 N   0  0  0  0  0  0  0  0  0  0  0  0
   -0.8000   -2.9856    0.0000 H   0  0  0  0  0  0  0  0  0  0  0  0
  1  2  1  0  0  0  0
  1  3  1  0  0  0  0
  1  4  1  0  0  0  0
  1  5  1  0  0  0  0
  5  6  1  0  0  0  0
  5  7  1  0  0  0  0
  7  8  1  0  0  0  0
  7  9  1  0  0  0  0
  7 10  1  0  0  0  0
 10  5  1  0  0  0  0
 10 11  1  0  0  0  0
M  END
> <ChemID>
100136

> <source_casrn>
75-55-8

> <CAS>
75-55-8

> <SMILES>
CC1CN1

> <NAME>
2-METHYLAZIRIDINE

> <preferred_name>
Propyleneimine

> <iupac>
2-methylaziridine

> <MPID>
19222

> <dsstox_substance_id>
DTXSID8024286

> <Canonical_QSARr>
CC1CN1

> <InChI_Code_QSARr>
InChI=1S/C3H7N/c1-3-2-4-3/h3-4H,2H2,1H3

> <InChI Key_QSARr>
OZDGMOYKSFPLSE-UHFFFAOYSA-N

> <Salt_Solvent>
?

> <BP>
67.0

$$$$
100140
  -INDIGO-08031720192D

  5  4  0  0  0  0  0  0  0  0999 V2000
    0.0000    0.0000    0.0000 C   0  0  0  0  0  0  0  0  0  0  0  0
    0.8000    1.3856    0.0000 Br  0  0  0  0  0  0  0  0  0  0  0  0
   -1.3856    0.8000    0.0000 F   0  0  0  0  0  0  0  0  0  0  0  0
    1.3856   -0.8000    0.0000 F   0  0  0  0  0  0  0  0  0  0  0  0
   -0.8000   -1.3856    0.0000 F   0  0  0  0  0  0  0  0  0  0  0  0
  1  2  1  0  0  0  0
  1  3  1  0  0  0  0
  1  4  1  0  0  0  0
  1  5  1  0  0  0  0
M  END
> <ChemID>
100140

> <source_casrn>
75-63-8

> <CAS>
75-63-8

> <SMILES>
FC(F)(F)Br

> <NAME>
BROMOTRIFLUOROMETHANE

> <preferred_name>
Bromotrifluoromethane

> <iupac>
bromo(trifluoro)methane

> <MPID>
19226

> <dsstox_substance_id>
DTXSID5026415

> <Canonical_QSARr>
FC(F)(F)Br

> <InChI_Code_QSARr>
InChI=1S/CBrF3/c2-1(3,4)5

> <InChI Key_QSARr>
RJCQBQGAPKAMLL-UHFFFAOYSA-N

> <Salt_Solvent>
?

> <BP>
-57.8

$$$$
100144
  -INDIGO-08031720192D

  8  7  0  0  0  0  0  0  0  0999 V2000
    0.0000    0.0000    0.0000 C   0  0  0  0  0  0  0  0  0  0  0  0
    1.6000    0.0000    0.0000 C   0  0  0  0  0  0  0  0  0  0  0  0
    3.2000    0.0000    0.0000 H   0  0  0  0  0  0  0  0  0  0  0  0
    2.4000   -1.3856    0.0000 H   0  0  0  0  0  0  0  0  0  0  0  0
    2.4000    1.3856    0.0000 H   0  0  0  0  0  0  0  0  0  0  0  0
   -1.6000   -0.0000    0.0000 Cl  0  0  0  0  0  0  0  0  0  0  0  0
   -0.8000   -1.3856    0.0000 F   0  0  0  0  0  0  0  0  0  0  0  0
   -0.8000    1.3856    0.0000 F   0  0  0  0  0  0  0  0  0  0  0  0
  1  2  1  0  0  0  0
  2  3  1  0  0  0  0
  2  4  1  0  0  0  0
  2  5  1  0  0  0  0
  1  6  1  0  0  0  0
  1  7  1  0  0  0  0
  1  8  1  0  0  0  0
M  END
> <ChemID>
100144

> <source_casrn>
75-68-3

> <CAS>
75-68-3

> <SMILES>
CC(F)(F)Cl

> <NAME>
1-CHLORO-1,1-DIFLUOROETHANE

> <preferred_name>
1-Chloro-1,1-difluoroethane

> <iupac>
1-chloro-1,1-difluoroethane

> <MPID>
19230

> <dsstox_substance_id>
DTXSID9023960

> <Canonical_QSARr>
CC(F)(F)Cl

> <InChI_Code_QSARr>
InChI=1S/C2H3ClF2/c1-2(3,4)5/h1H3

> <InChI Key_QSARr>
BHNZEZWIUMJCGF-UHFFFAOYSA-N

> <Salt_Solvent>
?

> <BP>
-9.7

$$$$
100148
  -INDIGO-08031720192D

  5  4  0  0  0  0  0  0  0  0999 V2000
    0.0000    0.0000    0.0000 C   0  0  0  0  0  0  0  0  0  0  0  0
    0.8000    1.3856    0.0000 F   0  0  0  0  0  0  0  0  0  0  0  0
   -1.3856    0.8000    0.0000 F   0  0  0  0  0  0  0  0  0  0  0  0
    1.3856   -0.8000    0.0000 F   0  0  0  0  0  0  0  0  0  0  0  0
   -0.8000   -1.3856    0.0000 F   0  0  0  0  0  0  0  0  0  0  0  0
  1  2  1  0  0  0  0
  1  3  1  0  0  0  0
  1  4  1  0  0  0  0
  1  5  1  0  0  0  0
M  END
> <ChemID>
100148

> <source_casrn>
75-73-0

> <CAS>
75-73-0

> <SMILES>
FC(F)(F)F

> <NAME>
TETRAFLUOROMETHANE

> <preferred_name>
Carbon tetrafluoride

> <iupac>
tetrafluoromethane

> <MPID>
19234

> <dsstox_substance_id>
DTXSID2041757

> <Canonical_QSARr>
FC(F)(F)F

> <InChI_Code_QSARr>
InChI=1S/CF4/c2-1(3,4)5

> <InChI Key_QSARr>
TXEYQDLBPFQVAA-UHFFFAOYSA-N

> <Salt_Solvent>
?

> <BP>
-128.0

$$$$
100153
  -INDIGO-08031720192D

  8  7  0  0  0  0  0  0  0  0999 V2000
    0.0000    0.0000    0.0000 Si  0  0  0  0  0  0  0  0  0  0  0  0
    1.6000   -0.0000    0.0000 Cl  0  0  0  0  0  0  0  0  0  0  0  0
    0.8000   -1.3856    0.0000 Cl  0  0  0  0  0  0  0  0  0  0  0  0
    0.8000    1.3856    0.0000 Cl  0  0  0  0  0  0  0  0  0  0  0  0
   -1.6000    0.0000    0.0000 C   0  0  0  0  0  0  0  0  0  0  0  0
   -3.2000    0.0000    0.0000 H   0  0  0  0  0  0  0  0  0  0  0  0
   -2.4000   -1.3856    0.0000 H   0  0  0  0  0  0  0  0  0  0  0  0
   -2.4000    1.3856    0.0000 H   0  0  0  0  0  0  0  0  0  0  0  0
  1  2  1  0  0  0  0
  1  3  1  0  0  0  0
  1  4  1  0  0  0  0
  1  5  1  0  0  0  0
  5  6  1  0  0  0  0
  5  7  1  0  0  0  0
  5  8  1  0  0  0  0
M  END
> <ChemID>
100153

> <source_casrn>
75-79-6

> <CAS>
75-79-6

> <SMILES>
C[Si](Cl)(Cl)Cl

> <NAME>
METHYLTRICHLOROSILANE

> <preferred_name>
Methyltrichlorosilane

> <iupac>
trichloro(methyl)silane

> <MPID>
19238

> <dsstox_substance_id>
DTXSID4026426

> <Canonical_QSARr>
C[Si](Cl)(Cl)Cl

> <InChI_Code_QSARr>
InChI=1S/CH3Cl3Si/c1-5(2,3)4/h1H3

> <InChI Key_QSARr>
JLUFWMXJHAVVNN-UHFFFAOYSA-N

> <Salt_Solvent>
?

> <BP>
65.6

$$$$
100158
  -INDIGO-08031720192D

 18 17  0  0  0  0  0  0  0  0999 V2000
    0.8000    1.3856    0.0000 C   0  0  0  0  0  0  0  0  0  0  0  0
    1.6001    2.7713    0.0000 H   0  0  0  0  0  0  0  0  0  0  0  0
    0.0000    2.7713    0.0000 H   0  0  0  0  0  0  0  0  0  0  0  0
    2.4000    1.3856    0.0000 H   0  0  0  0  0  0  0  0  0  0  0  0
    0.0000    0.0000    0.0000 C   0  0  0  0  0  0  0  0  0  0  0  0
   -1.5036    0.5472    0.0000 C   0  0  0  0  0  0  0  0  0  0  0  0
   -1.1572    2.1093    0.0000 H   0  0  0  0  0  0  0  0  0  0  0  0
   -2.3631    1.8967    0.0000 H   0  0  0  0  0  0  0  0  0  0  0  0
   -2.7292   -0.4813    0.0000 C   0  0  0  0  0  0  0  0  0  0  0  0
   -3.9548   -1.5097    0.0000 H   0  0  0  0  0  0  0  0  0  0  0  0
   -4.2327    0.0660    0.0000 H   0  0  0  0  0  0  0  0  0  0  0  0
   -2.4513   -2.0569    0.0000 H   0  0  0  0  0  0  0  0  0  0  0  0
   -0.8000   -1.3856    0.0000 O   0  0  0  0  0  0  0  0  0  0  0  0
    0.0000   -2.7713    0.0000 H   0  0  0  0  0  0  0  0  0  0  0  0
    1.3857   -0.8000    0.0000 C   0  0  0  0  0  0  0  0  0  0  0  0
    2.7713   -1.6000    0.0000 H   0  0  0  0  0  0  0  0  0  0  0  0
    1.3857   -2.4000    0.0000 H   0  0  0  0  0  0  0  0  0  0  0  0
    2.7713    0.0000    0.0000 H   0  0  0  0  0  0  0  0  0  0  0  0
  1  2  1  0  0  0  0
  1  3  1  0  0  0  0
  1  4  1  0  0  0  0
  1  5  1  0  0  0  0
  5  6  1  0  0  0  0
  6  7  1  0  0  0  0
  6  8  1  0  0  0  0
  6  9  1  0  0  0  0
  9 10  1  0  0  0  0
  9 11  1  0  0  0  0
  9 12  1  0  0  0  0
  5 13  1  0  0  0  0
 13 14  1  0  0  0  0
  5 15  1  0  0  0  0
 15 16  1  0  0  0  0
 15 17  1  0  0  0  0
 15 18  1  0  0  0  0
M  END
> <ChemID>
100158

> <source_casrn>
75-85-4

> <CAS>
75-85-4

> <SMILES>
CCC(C)(C)O

> <NAME>
2-METHYL-2-BUTANOL

> <preferred_name>
2-Methyl-2-butanol

> <iupac>
2-methylbutan-2-ol

> <MPID>
19242

> <dsstox_substance_id>
DTXSID0041436

> <Canonical_QSARr>
CCC(C)(C)O

> <InChI_Code_QSARr>
InChI=1S/C5H12O/c1-4-5(2,3)6/h6H,4H2,1-3H3

> <InChI Key_QSARr>
MSXVEPNJUHWQHW-UHFFFAOYSA-N

> <Salt_Solvent>
?

> <BP>
102.4

$$$$
100162
  -INDIGO-08031720192D

  9  8  0  0  0  0  0  0  0  0999 V2000
    1.6000    0.0000    0.0000 C   0  0  0  0  0  0  0  0  0  0  0  0
    3.2000    0.0000    0.0000 F   0  0  0  0  0  0  0  0  0  0  0  0
    2.4000   -1.3856    0.0000 F   0  0  0  0  0  0  0  0  0  0  0  0
    2.4000    1.3856    0.0000 F   0  0  0  0  0  0  0  0  0  0  0  0
   -0.0000    0.0000    0.0000 C   0  0  0  0  0  0  0  0  0  0  0  0
   -0.2089   -1.5863    0.0000 H   0  0  0  0  0  0  0  0  0  0  0  0
   -1.2694   -0.9740    0.0000 H   0  0  0  0  0  0  0  0  0  0  0  0
   -0.8000    1.3856    0.0000 O   0  0  0  0  0  0  0  0  0  0  0  0
   -2.4000    1.3856    0.0000 H   0  0  0  0  0  0  0  0  0  0  0  0
  1  2  1  0  0  0  0
  1  3  1  0  0  0  0
  1  4  1  0  0  0  0
  1  5  1  0  0  0  0
  5  6  1  0  0  0  0
  5  7  1  0  0  0  0
  5  8  1  0  0  0  0
  8  9  1  0  0  0  0
M  END
> <ChemID>
100162

> <source_casrn>
75-89-8

> <CAS>
75-89-8

> <SMILES>
OCC(F)(F)F

> <NAME>
2,2,2-TRIFLUOROETHANOL

> <preferred_name>
2,2,2-Trifluoroethanol

> <iupac>
2,2,2-trifluoroethanol

> <MPID>
19246

> <dsstox_substance_id>
DTXSID0021751

> <Canonical_QSARr>
OCC(F)(F)F

> <InChI_Code_QSARr>
InChI=1S/C2H3F3O/c3-2(4,5)1-6/h6H,1H2

> <InChI Key_QSARr>
RHQDFWAXVIIEBN-UHFFFAOYSA-N

> <Salt_Solvent>
?

> <BP>
74.0

$$$$
100166
  -INDIGO-08031720192D

 11 10  0  0  0  0  0  0  0  0999 V2000
    1.3856    0.8000    0.0000 C   0  0  0  0  0  0  0  0  0  0  0  0
    2.7713    1.6000    0.0000 H   0  0  0  0  0  0  0  0  0  0  0  0
    2.7713    0.0000    0.0000 H   0  0  0  0  0  0  0  0  0  0  0  0
    1.3856    2.4000    0.0000 H   0  0  0  0  0  0  0  0  0  0  0  0
    0.0000    0.0000    0.0000 C   0  0  0  0  0  0  0  0  0  0  0  0
    0.6123   -1.4782    0.0000 Cl  0  0  0  0  0  0  0  0  0  0  0  0
   -0.6123   -1.4782    0.0000 Cl  0  0  0  0  0  0  0  0  0  0  0  0
   -1.3856    0.8000    0.0000 C   0  0  0  0  0  0  0  0  0  0  0  0
   -2.7713    0.0000    0.0000 O   0  0  0  0  0  0  0  0  0  0  0  0
   -4.1569    0.8000    0.0000 H   0  0  0  0  0  0  0  0  0  0  0  0
   -1.3856    2.4000    0.0000 O   0  0  0  0  0  0  0  0  0  0  0  0
  1  2  1  0  0  0  0
  1  3  1  0  0  0  0
  1  4  1  0  0  0  0
  1  5  1  0  0  0  0
  5  6  1  0  0  0  0
  5  7  1  0  0  0  0
  5  8  1  0  0  0  0
  8  9  1  0  0  0  0
  9 10  1  0  0  0  0
  8 11  2  0  0  0  0
M  END
> <ChemID>
100166

> <source_casrn>
75-99-0

> <CAS>
75-99-0

> <SMILES>
CC(Cl)(Cl)C(O)=O

> <NAME>
DALAPON

> <preferred_name>
Dalapon

> <iupac>
2,2-dichloropropanoic acid

> <MPID>
19250

> <dsstox_substance_id>
DTXSID2021575

> <Canonical_QSARr>
CC(Cl)(Cl)C(O)=O

> <InChI_Code_QSARr>
InChI=1S/C3H4Cl2O2/c1-3(4,5)2(6)7/h1H3,(H,6,7)

> <InChI Key_QSARr>
NDUPDOJHUQKPAG-UHFFFAOYSA-N

> <Salt_Solvent>
?

> <BP>
187.5

$$$$
100170
  -INDIGO-08031720192D

  8  7  0  0  0  0  0  0  0  0999 V2000
   -0.8000   -1.3856    0.0000 Cl  0  0  0  0  0  0  0  0  0  0  0  0
   -0.0000    0.0000    0.0000 C   0  0  0  0  0  0  0  0  0  0  0  0
    1.6000    0.0000    0.0000 C   0  0  0  0  0  0  0  0  0  0  0  0
    2.4000   -1.3856    0.0000 O   0  0  0  0  0  0  0  0  0  0  0  0
    2.4000    1.3856    0.0000 O   0  0  0  0  0  0  0  0  0  0  0  0
    4.0000    1.3856    0.0000 H   0  0  0  0  0  0  0  0  0  0  0  0
   -1.6000    0.0000    0.0000 Cl  0  0  0  0  0  0  0  0  0  0  0  0
   -0.8000    1.3856    0.0000 Cl  0  0  0  0  0  0  0  0  0  0  0  0
  1  2  1  0  0  0  0
  2  3  1  0  0  0  0
  3  4  2  0  0  0  0
  3  5  1  0  0  0  0
  5  6  1  0  0  0  0
  2  7  1  0  0  0  0
  2  8  1  0  0  0  0
M  END
> <ChemID>
100170

> <source_casrn>
76-03-9

> <CAS>
76-03-9

> <SMILES>
OC(=O)C(Cl)(Cl)Cl

> <NAME>
TRICHLOROACETIC ACID

> <preferred_name>
Trichloroacetic acid

> <iupac>
trichloroacetic acid

> <MPID>
19254

> <dsstox_substance_id>
DTXSID1021378

> <Canonical_QSARr>
OC(=O)C(Cl)(Cl)Cl

> <InChI_Code_QSARr>
InChI=1S/C2HCl3O2/c3-2(4,5)1(6)7/h(H,6,7)

> <InChI Key_QSARr>
YNJBWRMUSHSURL-UHFFFAOYSA-N

> <Salt_Solvent>
?

> <BP>
196.5

$$$$
100174
  -INDIGO-08031720192D

 22 21  0  0  0  0  0  0  0  0999 V2000
    0.0000    0.0000    0.0000 C   0  0  0  0  0  0  0  0  0  0  0  0
    1.3856   -0.8000    0.0000 C   0  0  0  0  0  0  0  0  0  0  0  0
    2.7713   -1.6000    0.0000 C   0  0  0  0  0  0  0  0  0  0  0  0
    4.1569   -2.4000    0.0000 H   0  0  0  0  0  0  0  0  0  0  0  0
    4.1569   -0.8000    0.0000 H   0  0  0  0  0  0  0  0  0  0  0  0
    2.7713   -3.2000    0.0000 H   0  0  0  0  0  0  0  0  0  0  0  0
    0.5857   -2.1857    0.0000 C   0  0  0  0  0  0  0  0  0  0  0  0
   -0.2144   -3.5713    0.0000 H   0  0  0  0  0  0  0  0  0  0  0  0
    1.3856   -3.5713    0.0000 H   0  0  0  0  0  0  0  0  0  0  0  0
   -0.9900   -2.4635    0.0000 H   0  0  0  0  0  0  0  0  0  0  0  0
    2.1856    0.5857    0.0000 O   0  0  0  0  0  0  0  0  0  0  0  0
    3.7856    0.5857    0.0000 H   0  0  0  0  0  0  0  0  0  0  0  0
   -1.3856    0.8000    0.0000 C   0  0  0  0  0  0  0  0  0  0  0  0
   -2.7713    1.6000    0.0000 H   0  0  0  0  0  0  0  0  0  0  0  0
   -1.3856    2.4000    0.0000 H   0  0  0  0  0  0  0  0  0  0  0  0
   -2.7713    0.0000    0.0000 H   0  0  0  0  0  0  0  0  0  0  0  0
    0.8000    1.3857    0.0000 C   0  0  0  0  0  0  0  0  0  0  0  0
    1.6000    2.7713    0.0000 H   0  0  0  0  0  0  0  0  0  0  0  0
    0.0000    2.7713    0.0000 H   0  0  0  0  0  0  0  0  0  0  0  0
    2.3757    1.6635    0.0000 H   0  0  0  0  0  0  0  0  0  0  0  0
   -0.8000   -1.3857    0.0000 O   0  0  0  0  0  0  0  0  0  0  0  0
   -2.4000   -1.3857    0.0000 H   0  0  0  0  0  0  0  0  0  0  0  0
  1  2  1  0  0  0  0
  2  3  1  0  0  0  0
  3  4  1  0  0  0  0
  3  5  1  0  0  0  0
  3  6  1  0  0  0  0
  2  7  1  0  0  0  0
  7  8  1  0  0  0  0
  7  9  1  0  0  0  0
  7 10  1  0  0  0  0
  2 11  1  0  0  0  0
 11 12  1  0  0  0  0
  1 13  1  0  0  0  0
 13 14  1  0  0  0  0
 13 15  1  0  0  0  0
 13 16  1  0  0  0  0
  1 17  1  0  0  0  0
 17 18  1  0  0  0  0
 17 19  1  0  0  0  0
 17 20  1  0  0  0  0
  1 21  1  0  0  0  0
 21 22  1  0  0  0  0
M  END
> <ChemID>
100174

> <source_casrn>
76-09-5

> <CAS>
76-09-5

> <SMILES>
CC(C)(O)C(C)(C)O

> <NAME>
PINACOL

> <preferred_name>
2,3-Butanediol, 2,3-dimethyl-

> <iupac>
2,3-Dimethylbutane-2,3-diol

> <MPID>
19258

> <dsstox_substance_id>
DTXSID3058793

> <Canonical_QSARr>
CC(C)(O)C(C)(C)O

> <InChI_Code_QSARr>
InChI=1S/C6H14O2/c1-5(2,7)6(3,4)8/h7-8H,1-4H3

> <InChI Key_QSARr>
IVDFJHOHABJVEH-UHFFFAOYSA-N

> <Salt_Solvent>
?

> <BP>
174.4

$$$$
100178
  -INDIGO-08031720192D

  8  7  0  0  0  0  0  0  0  0999 V2000
    0.0000    0.0000    0.0000 C   0  0  0  0  0  0  0  0  0  0  0  0
    1.6000    0.0000    0.0000 C   0  0  0  0  0  0  0  0  0  0  0  0
    3.2000    0.0000    0.0000 Cl  0  0  0  0  0  0  0  0  0  0  0  0
    2.4000   -1.3856    0.0000 F   0  0  0  0  0  0  0  0  0  0  0  0
    2.4000    1.3856    0.0000 F   0  0  0  0  0  0  0  0  0  0  0  0
   -1.6000   -0.0000    0.0000 Cl  0  0  0  0  0  0  0  0  0  0  0  0
   -0.8000   -1.3856    0.0000 F   0  0  0  0  0  0  0  0  0  0  0  0
   -0.8000    1.3856    0.0000 F   0  0  0  0  0  0  0  0  0  0  0  0
  1  2  1  0  0  0  0
  2  3  1  0  0  0  0
  2  4  1  0  0  0  0
  2  5  1  0  0  0  0
  1  6  1  0  0  0  0
  1  7  1  0  0  0  0
  1  8  1  0  0  0  0
M  END
> <ChemID>
100178

> <source_casrn>
76-14-2

> <CAS>
76-14-2

> <SMILES>
FC(F)(Cl)C(F)(F)Cl

> <NAME>
1,2-DICHLOROTETRAFLUOROETHANE

> <preferred_name>
1,2-Dichloro-1,1,2,2-tetrafluoroethane

> <iupac>
1,2-dichloro-1,1,2,2-tetrafluoroethane

> <MPID>
19262

> <dsstox_substance_id>
DTXSID8026434

> <Canonical_QSARr>
FC(F)(Cl)C(F)(F)Cl

> <InChI_Code_QSARr>
InChI=1S/C2Cl2F4/c3-1(5,6)2(4,7)8

> <InChI Key_QSARr>
DDMOUSALMHHKOS-UHFFFAOYSA-N

> <Salt_Solvent>
?

> <BP>
3.8

$$$$
100182
  -INDIGO-08031720192D

 11 10  0  0  0  0  0  0  0  0999 V2000
    0.0000    0.0000    0.0000 C   0  0  0  0  0  0  0  0  0  0  0  0
    1.3856    0.8000    0.0000 C   0  0  0  0  0  0  0  0  0  0  0  0
    2.7713    1.6000    0.0000 F   0  0  0  0  0  0  0  0  0  0  0  0
    2.7713    0.0000    0.0000 F   0  0  0  0  0  0  0  0  0  0  0  0
    1.3856    2.4000    0.0000 F   0  0  0  0  0  0  0  0  0  0  0  0
   -1.3856    0.8000    0.0000 C   0  0  0  0  0  0  0  0  0  0  0  0
   -2.7713    1.6000    0.0000 F   0  0  0  0  0  0  0  0  0  0  0  0
   -2.7713    0.0000    0.0000 F   0  0  0  0  0  0  0  0  0  0  0  0
   -1.3856    2.4000    0.0000 F   0  0  0  0  0  0  0  0  0  0  0  0
   -0.6123   -1.4782    0.0000 F   0  0  0  0  0  0  0  0  0  0  0  0
    0.6123   -1.4782    0.0000 F   0  0  0  0  0  0  0  0  0  0  0  0
  1  2  1  0  0  0  0
  2  3  1  0  0  0  0
  2  4  1  0  0  0  0
  2  5  1  0  0  0  0
  1  6  1  0  0  0  0
  6  7  1  0  0  0  0
  6  8  1  0  0  0  0
  6  9  1  0  0  0  0
  1 10  1  0  0  0  0
  1 11  1  0  0  0  0
M  END
> <ChemID>
100182

> <source_casrn>
76-19-7

> <CAS>
76-19-7

> <SMILES>
FC(F)(C(F)(F)F)C(F)(F)F

> <NAME>
OCTAFLUOROPROPANE

> <preferred_name>
Perflutren

> <iupac>
octafluoropropane

> <MPID>
19266

> <dsstox_substance_id>
DTXSID9052503

> <Canonical_QSARr>
FC(F)(C(F)(F)F)C(F)(F)F

> <InChI_Code_QSARr>
InChI=1S/C3F8/c4-1(5,2(6,7)8)3(9,10)11

> <InChI Key_QSARr>
QYSGYZVSCZSLHT-UHFFFAOYSA-N

> <Salt_Solvent>
?

> <BP>
-36.6

$$$$
100186
  -INDIGO-08031720192D

 13 12  0  0  0  0  0  0  0  0999 V2000
    2.7713    0.0000    0.0000 C   0  0  0  0  0  0  0  0  0  0  0  0
    4.1569    0.8000    0.0000 H   0  0  0  0  0  0  0  0  0  0  0  0
    2.7713   -1.6000    0.0000 O   0  0  0  0  0  0  0  0  0  0  0  0
    1.3856    0.8000    0.0000 C   0  0  0  0  0  0  0  0  0  0  0  0
    0.0000    0.0000    0.0000 C   0  0  0  0  0  0  0  0  0  0  0  0
    0.6123   -1.4782    0.0000 H   0  0  0  0  0  0  0  0  0  0  0  0
   -1.3856    0.8000    0.0000 C   0  0  0  0  0  0  0  0  0  0  0  0
   -2.7713    1.6000    0.0000 H   0  0  0  0  0  0  0  0  0  0  0  0
   -2.7713    0.0000    0.0000 H   0  0  0  0  0  0  0  0  0  0  0  0
   -1.3856    2.4000    0.0000 H   0  0  0  0  0  0  0  0  0  0  0  0
   -0.6123   -1.4782    0.0000 Cl  0  0  0  0  0  0  0  0  0  0  0  0
    0.7733    2.2782    0.0000 Cl  0  0  0  0  0  0  0  0  0  0  0  0
    1.9980    2.2782    0.0000 Cl  0  0  0  0  0  0  0  0  0  0  0  0
  1  2  1  0  0  0  0
  1  3  2  0  0  0  0
  1  4  1  0  0  0  0
  4  5  1  0  0  0  0
  5  6  1  0  0  0  0
  5  7  1  0  0  0  0
  7  8  1  0  0  0  0
  7  9  1  0  0  0  0
  7 10  1  0  0  0  0
  5 11  1  0  0  0  0
  4 12  1  0  0  0  0
  4 13  1  0  0  0  0
M  END
> <ChemID>
100186

> <source_casrn>
76-36-8

> <CAS>
NOCAS_871545

> <SMILES>
CC(Cl)C(Cl)(Cl)C=O

> <NAME>
a,a,b-Trichloro-n-butyraldehyde

> <preferred_name>


> <iupac>


> <MPID>
19270

> <dsstox_substance_id>
DTXSID50871545

> <Canonical_QSARr>
CC(Cl)C(Cl)(Cl)C=O

> <InChI_Code_QSARr>
InChI=1S/C4H5Cl3O/c1-3(5)4(6,7)2-8/h2-3H,1H3

> <InChI Key_QSARr>
OXVISHZELPRKFQ-UHFFFAOYSA-N

> <Salt_Solvent>
?

> <BP>
164.0

$$$$
100190
  -INDIGO-08031720192D

 34 35  0  0  0  0  0  0  0  0999 V2000
   -0.0000    0.0000    0.0000 C   0  0  0  0  0  0  0  0  0  0  0  0
    1.5767    0.2722    0.0000 C   0  0  0  0  0  0  0  0  0  0  0  0
    2.4380   -0.2558    0.0000 H   0  0  0  0  0  0  0  0  0  0  0  0
    2.8085    1.2933    0.0000 O   0  0  0  0  0  0  0  0  0  0  0  0
    4.3088    0.7372    0.0000 C   0  0  0  0  0  0  0  0  0  0  0  0
    4.5772   -0.8401    0.0000 O   0  0  0  0  0  0  0  0  0  0  0  0
    5.5404    1.7583    0.0000 C   0  0  0  0  0  0  0  0  0  0  0  0
    6.7722    2.7795    0.0000 H   0  0  0  0  0  0  0  0  0  0  0  0
    7.0407    1.2022    0.0000 H   0  0  0  0  0  0  0  0  0  0  0  0
    5.2719    3.3356    0.0000 H   0  0  0  0  0  0  0  0  0  0  0  0
    0.3465    1.1467    0.0000 C   0  0  0  0  0  0  0  0  0  0  0  0
   -0.1911    2.6536    0.0000 H   0  0  0  0  0  0  0  0  0  0  0  0
    1.6224    2.1121    0.0000 H   0  0  0  0  0  0  0  0  0  0  0  0
   -1.3606    1.0822    0.0000 C   0  0  0  0  0  0  0  0  0  0  0  0
   -2.9503    1.2640    0.0000 H   0  0  0  0  0  0  0  0  0  0  0  0
   -1.7739    2.5465    0.0000 C   0  0  0  0  0  0  0  0  0  0  0  0
   -3.3588    2.7657    0.0000 C   0  0  0  0  0  0  0  0  0  0  0  0
   -3.9616    4.2479    0.0000 H   0  0  0  0  0  0  0  0  0  0  0  0
   -4.9438    2.9848    0.0000 H   0  0  0  0  0  0  0  0  0  0  0  0
   -2.3766    4.0287    0.0000 H   0  0  0  0  0  0  0  0  0  0  0  0
   -0.9378    3.9107    0.0000 C   0  0  0  0  0  0  0  0  0  0  0  0
   -0.1017    5.2748    0.0000 H   0  0  0  0  0  0  0  0  0  0  0  0
   -1.7011    5.3169    0.0000 H   0  0  0  0  0  0  0  0  0  0  0  0
    0.6616    3.8686    0.0000 H   0  0  0  0  0  0  0  0  0  0  0  0
   -2.1363   -0.3280    0.0000 C   0  0  0  0  0  0  0  0  0  0  0  0
   -2.9818   -1.6864    0.0000 H   0  0  0  0  0  0  0  0  0  0  0  0
   -3.5170    0.4806    0.0000 H   0  0  0  0  0  0  0  0  0  0  0  0
   -0.7643   -1.2339    0.0000 C   0  0  0  0  0  0  0  0  0  0  0  0
    0.2135   -2.5004    0.0000 H   0  0  0  0  0  0  0  0  0  0  0  0
   -1.6329   -2.5776    0.0000 H   0  0  0  0  0  0  0  0  0  0  0  0
    1.1116   -1.1507    0.0000 C   0  0  0  0  0  0  0  0  0  0  0  0
    2.2233   -2.3015    0.0000 H   0  0  0  0  0  0  0  0  0  0  0  0
    1.2235   -2.7468    0.0000 H   0  0  0  0  0  0  0  0  0  0  0  0
    2.1214   -1.1778    0.0000 H   0  0  0  0  0  0  0  0  0  0  0  0
  1  2  1  0  0  0  0
  2  3  1  0  0  0  0
  2  4  1  0  0  0  0
  4  5  1  0  0  0  0
  5  6  2  0  0  0  0
  5  7  1  0  0  0  0
  7  8  1  0  0  0  0
  7  9  1  0  0  0  0
  7 10  1  0  0  0  0
  2 11  1  0  0  0  0
 11 12  1  0  0  0  0
 11 13  1  0  0  0  0
 11 14  1  0  0  0  0
 14 15  1  0  0  0  0
 14 16  1  0  0  0  0
 16  1  1  0  0  0  0
 16 17  1  0  0  0  0
 17 18  1  0  0  0  0
 17 19  1  0  0  0  0
 17 20  1  0  0  0  0
 16 21  1  0  0  0  0
 21 22  1  0  0  0  0
 21 23  1  0  0  0  0
 21 24  1  0  0  0  0
 14 25  1  0  0  0  0
 25 26  1  0  0  0  0
 25 27  1  0  0  0  0
 25 28  1  0  0  0  0
 28  1  1  0  0  0  0
 28 29  1  0  0  0  0
 28 30  1  0  0  0  0
  1 31  1  0  0  0  0
 31 32  1  0  0  0  0
 31 33  1  0  0  0  0
 31 34  1  0  0  0  0
M  END
> <ChemID>
100190

> <source_casrn>
76-49-3

> <CAS>
76-49-3

> <SMILES>
CC1(C)C2C[C@@H](OC(C)=O)C1(C)CC2

> <NAME>
BORNYL ACETATE

> <preferred_name>
Bornyl acetate

> <iupac>
(2R)-1,7,7-trimethylbicyclo[2.2.1]hept-2-yl acetate

> <MPID>
19274

> <dsstox_substance_id>
DTXSID7041675

> <Canonical_QSARr>
CC1(C)C2CC(OC(C)=O)C1(C)CC2

> <InChI_Code_QSARr>
InChI=1S/C12H20O2/c1-8(13)14-10-7-9-5-6-12(10,4)11(9,2)3/h9-10H,5-7H2,1-4H3

> <InChI Key_QSARr>
KGEKLUUHTZCSIP-UHFFFAOYSA-N

> <Salt_Solvent>
?

> <BP>
221.0

$$$$
100194
  -INDIGO-08031720192D

 11 11  0  0  0  0  0  0  0  0999 V2000
    0.6508   -1.4617    0.0000 Cl  0  0  0  0  0  0  0  0  0  0  0  0
   -0.0000   -0.0000    0.0000 C   0  0  0  0  0  0  0  0  0  0  0  0
   -0.3327    1.5650    0.0000 C   0  0  0  0  0  0  0  0  0  0  0  0
    0.7380    2.7541    0.0000 Cl  0  0  0  0  0  0  0  0  0  0  0  0
   -1.9239    1.7323    0.0000 C   0  0  0  0  0  0  0  0  0  0  0  0
   -2.7239    3.1179    0.0000 Cl  0  0  0  0  0  0  0  0  0  0  0  0
   -2.5747    0.2706    0.0000 C   0  0  0  0  0  0  0  0  0  0  0  0
   -4.1397   -0.0621    0.0000 Cl  0  0  0  0  0  0  0  0  0  0  0  0
   -1.3857   -0.8000    0.0000 C   0  0  0  0  0  0  0  0  0  0  0  0
   -1.5529   -2.3912    0.0000 Cl  0  0  0  0  0  0  0  0  0  0  0  0
    1.5217    0.4944    0.0000 Cl  0  0  0  0  0  0  0  0  0  0  0  0
  1  2  1  0  0  0  0
  2  3  1  0  0  0  0
  3  4  1  0  0  0  0
  3  5  2  0  0  0  0
  5  6  1  0  0  0  0
  5  7  1  0  0  0  0
  7  8  1  0  0  0  0
  7  9  2  0  0  0  0
  9  2  1  0  0  0  0
  9 10  1  0  0  0  0
  2 11  1  0  0  0  0
M  END
> <ChemID>
100194

> <source_casrn>
77-47-4

> <CAS>
77-47-4

> <SMILES>
ClC1(Cl)C(Cl)=C(Cl)C(Cl)=C1Cl

> <NAME>
HEXACHLOROCYCLOPENTADIENE

> <preferred_name>
Hexachlorocyclopentadiene

> <iupac>
1,2,3,4,5,5-hexachlorocyclopenta-1,3-diene

> <MPID>
19278

> <dsstox_substance_id>
DTXSID2020688

> <Canonical_QSARr>
ClC1(Cl)C(Cl)=C(Cl)C(Cl)=C1Cl

> <InChI_Code_QSARr>
InChI=1S/C5Cl6/c6-1-2(7)4(9)5(10,11)3(1)8

> <InChI Key_QSARr>
VUNCWTMEJYMOOR-UHFFFAOYSA-N

> <Salt_Solvent>
?

> <BP>
239.0

$$$$
100198
  -INDIGO-08031720192D

 19 18  0  0  0  0  0  0  0  0999 V2000
    0.8001   -1.3856    0.0000 C   0  0  0  0  0  0  0  0  0  0  0  0
    1.6000   -2.7713    0.0000 H   0  0  0  0  0  0  0  0  0  0  0  0
   -0.0001   -2.7713    0.0000 H   0  0  0  0  0  0  0  0  0  0  0  0
    2.4000   -1.3856    0.0000 H   0  0  0  0  0  0  0  0  0  0  0  0
   -0.0001    0.0000    0.0000 C   0  0  0  0  0  0  0  0  0  0  0  0
   -0.8000    1.3856    0.0000 C   0  0  0  0  0  0  0  0  0  0  0  0
   -1.6000    2.7713    0.0000 H   0  0  0  0  0  0  0  0  0  0  0  0
   -2.4000    1.3856    0.0000 H   0  0  0  0  0  0  0  0  0  0  0  0
   -0.0001    2.7713    0.0000 H   0  0  0  0  0  0  0  0  0  0  0  0
    1.3856    0.8000    0.0000 O   0  0  0  0  0  0  0  0  0  0  0  0
    2.7713    0.0000    0.0000 C   0  0  0  0  0  0  0  0  0  0  0  0
    4.1569    0.8000    0.0000 H   0  0  0  0  0  0  0  0  0  0  0  0
    4.1569   -0.8000    0.0000 H   0  0  0  0  0  0  0  0  0  0  0  0
    2.7713    1.6000    0.0000 H   0  0  0  0  0  0  0  0  0  0  0  0
   -1.3856   -0.8000    0.0000 O   0  0  0  0  0  0  0  0  0  0  0  0
   -2.7713    0.0000    0.0000 C   0  0  0  0  0  0  0  0  0  0  0  0
   -4.1569   -0.8000    0.0000 H   0  0  0  0  0  0  0  0  0  0  0  0
   -4.1569    0.8000    0.0000 H   0  0  0  0  0  0  0  0  0  0  0  0
   -2.7712   -1.6000    0.0000 H   0  0  0  0  0  0  0  0  0  0  0  0
  1  2  1  0  0  0  0
  1  3  1  0  0  0  0
  1  4  1  0  0  0  0
  1  5  1  0  0  0  0
  5  6  1  0  0  0  0
  6  7  1  0  0  0  0
  6  8  1  0  0  0  0
  6  9  1  0  0  0  0
  5 10  1  0  0  0  0
 10 11  1  0  0  0  0
 11 12  1  0  0  0  0
 11 13  1  0  0  0  0
 11 14  1  0  0  0  0
  5 15  1  0  0  0  0
 15 16  1  0  0  0  0
 16 17  1  0  0  0  0
 16 18  1  0  0  0  0
 16 19  1  0  0  0  0
M  END
> <ChemID>
100198

> <source_casrn>
77-76-9

> <CAS>
77-76-9

> <SMILES>
CC(C)(OC)OC

> <NAME>
2,2-DIMETHOXYPROPANE

> <preferred_name>
2,2-Dimethoxypropane

> <iupac>
2,2-dimethoxypropane

> <MPID>
19282

> <dsstox_substance_id>
DTXSID7026441

> <Canonical_QSARr>
CC(C)(OC)OC

> <InChI_Code_QSARr>
InChI=1S/C5H12O2/c1-5(2,6-3)7-4/h1-4H3

> <InChI Key_QSARr>
HEWZVZIVELJPQZ-UHFFFAOYSA-N

> <Salt_Solvent>
?

> <BP>
83.0

$$$$
100202
  -INDIGO-08031720192D

 22 21  0  0  0  0  0  0  0  0999 V2000
    0.2528    2.8892    0.0000 O   0  0  0  0  0  0  0  0  0  0  0  0
    1.2812    4.1148    0.0000 H   0  0  0  0  0  0  0  0  0  0  0  0
    0.7999    1.3857    0.0000 C   0  0  0  0  0  0  0  0  0  0  0  0
    2.2782    0.7733    0.0000 H   0  0  0  0  0  0  0  0  0  0  0  0
    2.2782    1.9980    0.0000 H   0  0  0  0  0  0  0  0  0  0  0  0
   -0.0000   -0.0000    0.0000 C   0  0  0  0  0  0  0  0  0  0  0  0
   -1.3857    0.8000    0.0000 C   0  0  0  0  0  0  0  0  0  0  0  0
   -0.7734    2.2782    0.0000 H   0  0  0  0  0  0  0  0  0  0  0  0
   -1.9980    2.2782    0.0000 H   0  0  0  0  0  0  0  0  0  0  0  0
   -2.7713   -0.0000    0.0000 C   0  0  0  0  0  0  0  0  0  0  0  0
   -4.1569    0.8000    0.0000 H   0  0  0  0  0  0  0  0  0  0  0  0
   -4.1569   -0.8000    0.0000 H   0  0  0  0  0  0  0  0  0  0  0  0
   -2.7713    1.6000    0.0000 H   0  0  0  0  0  0  0  0  0  0  0  0
    1.3856   -0.8000    0.0000 C   0  0  0  0  0  0  0  0  0  0  0  0
    0.7733   -2.2783    0.0000 H   0  0  0  0  0  0  0  0  0  0  0  0
    1.9979   -2.2783    0.0000 H   0  0  0  0  0  0  0  0  0  0  0  0
    2.8891   -0.2528    0.0000 O   0  0  0  0  0  0  0  0  0  0  0  0
    4.1148   -1.2812    0.0000 H   0  0  0  0  0  0  0  0  0  0  0  0
   -0.8000   -1.3856    0.0000 C   0  0  0  0  0  0  0  0  0  0  0  0
   -1.6000   -2.7713    0.0000 H   0  0  0  0  0  0  0  0  0  0  0  0
   -0.2527   -2.8891    0.0000 H   0  0  0  0  0  0  0  0  0  0  0  0
   -2.4000   -1.3856    0.0000 H   0  0  0  0  0  0  0  0  0  0  0  0
  1  2  1  0  0  0  0
  1  3  1  0  0  0  0
  3  4  1  0  0  0  0
  3  5  1  0  0  0  0
  3  6  1  0  0  0  0
  6  7  1  0  0  0  0
  7  8  1  0  0  0  0
  7  9  1  0  0  0  0
  7 10  1  0  0  0  0
 10 11  1  0  0  0  0
 10 12  1  0  0  0  0
 10 13  1  0  0  0  0
  6 14  1  0  0  0  0
 14 15  1  0  0  0  0
 14 16  1  0  0  0  0
 14 17  1  0  0  0  0
 17 18  1  0  0  0  0
  6 19  1  0  0  0  0
 19 20  1  0  0  0  0
 19 21  1  0  0  0  0
 19 22  1  0  0  0  0
M  END
> <ChemID>
100202

> <source_casrn>
77-84-9

> <CAS>
77-84-9

> <SMILES>
CCC(C)(CO)CO

> <NAME>
2-Ethyl-2-methyl-1,3-propanediol

> <preferred_name>
2-Ethyl-2-methylpropane-1,3-diol

> <iupac>
2-Ethyl-2-methylpropane-1,3-diol

> <MPID>
19286

> <dsstox_substance_id>
DTXSID20227813

> <Canonical_QSARr>
CCC(C)(CO)CO

> <InChI_Code_QSARr>
InChI=1S/C6H14O2/c1-3-6(2,4-7)5-8/h7-8H,3-5H2,1-2H3

> <InChI Key_QSARr>
VNAWKNVDKFZFSU-UHFFFAOYSA-N

> <Salt_Solvent>
?

> <BP>
225.8

$$$$
100208
  -INDIGO-08031720192D

 33 32  0  0  0  0  0  0  0  0999 V2000
   -1.6001    0.0001    0.0000 O   0  0  0  0  0  0  0  0  0  0  0  0
   -2.4000    1.3857    0.0000 C   0  0  0  0  0  0  0  0  0  0  0  0
   -1.1306    2.3597    0.0000 H   0  0  0  0  0  0  0  0  0  0  0  0
   -2.1912    2.9720    0.0000 H   0  0  0  0  0  0  0  0  0  0  0  0
   -4.0000    1.3857    0.0000 C   0  0  0  0  0  0  0  0  0  0  0  0
   -5.6000    1.3857    0.0000 H   0  0  0  0  0  0  0  0  0  0  0  0
   -4.8000    2.7713    0.0000 H   0  0  0  0  0  0  0  0  0  0  0  0
   -4.8000    0.0001    0.0000 H   0  0  0  0  0  0  0  0  0  0  0  0
    0.0001    0.0001    0.0000 C   0  0  0  0  0  0  0  0  0  0  0  0
    1.6001    0.0001    0.0000 O   0  0  0  0  0  0  0  0  0  0  0  0
    2.4000   -1.3857    0.0000 C   0  0  0  0  0  0  0  0  0  0  0  0
    1.1306   -2.3597    0.0000 H   0  0  0  0  0  0  0  0  0  0  0  0
    2.1912   -2.9720    0.0000 H   0  0  0  0  0  0  0  0  0  0  0  0
    4.0000   -1.3857    0.0000 C   0  0  0  0  0  0  0  0  0  0  0  0
    5.6000   -1.3857    0.0000 H   0  0  0  0  0  0  0  0  0  0  0  0
    4.8000   -2.7713    0.0000 H   0  0  0  0  0  0  0  0  0  0  0  0
    4.8000    0.0001    0.0000 H   0  0  0  0  0  0  0  0  0  0  0  0
    0.8001    1.3857    0.0000 O   0  0  0  0  0  0  0  0  0  0  0  0
    2.4000    1.3857    0.0000 C   0  0  0  0  0  0  0  0  0  0  0  0
    3.6693    0.4117    0.0000 H   0  0  0  0  0  0  0  0  0  0  0  0
    2.6089   -0.2006    0.0000 H   0  0  0  0  0  0  0  0  0  0  0  0
    3.2000    2.7713    0.0000 C   0  0  0  0  0  0  0  0  0  0  0  0
    4.0000    4.1569    0.0000 H   0  0  0  0  0  0  0  0  0  0  0  0
    4.8000    2.7713    0.0000 H   0  0  0  0  0  0  0  0  0  0  0  0
    2.4000    4.1569    0.0000 H   0  0  0  0  0  0  0  0  0  0  0  0
    0.8001   -1.3857    0.0000 O   0  0  0  0  0  0  0  0  0  0  0  0
    0.0001   -2.7713    0.0000 C   0  0  0  0  0  0  0  0  0  0  0  0
   -1.4782   -2.1590    0.0000 H   0  0  0  0  0  0  0  0  0  0  0  0
   -1.4782   -3.3836    0.0000 H   0  0  0  0  0  0  0  0  0  0  0  0
    0.8001   -4.1569    0.0000 C   0  0  0  0  0  0  0  0  0  0  0  0
    0.0001   -5.5426    0.0000 H   0  0  0  0  0  0  0  0  0  0  0  0
    1.6001   -5.5426    0.0000 H   0  0  0  0  0  0  0  0  0  0  0  0
    2.4000   -4.1569    0.0000 H   0  0  0  0  0  0  0  0  0  0  0  0
  1  2  1  0  0  0  0
  2  3  1  0  0  0  0
  2  4  1  0  0  0  0
  2  5  1  0  0  0  0
  5  6  1  0  0  0  0
  5  7  1  0  0  0  0
  5  8  1  0  0  0  0
  1  9  1  0  0  0  0
  9 10  1  0  0  0  0
 10 11  1  0  0  0  0
 11 12  1  0  0  0  0
 11 13  1  0  0  0  0
 11 14  1  0  0  0  0
 14 15  1  0  0  0  0
 14 16  1  0  0  0  0
 14 17  1  0  0  0  0
  9 18  1  0  0  0  0
 18 19  1  0  0  0  0
 19 20  1  0  0  0  0
 19 21  1  0  0  0  0
 19 22  1  0  0  0  0
 22 23  1  0  0  0  0
 22 24  1  0  0  0  0
 22 25  1  0  0  0  0
  9 26  1  0  0  0  0
 26 27  1  0  0  0  0
 27 28  1  0  0  0  0
 27 29  1  0  0  0  0
 27 30  1  0  0  0  0
 30 31  1  0  0  0  0
 30 32  1  0  0  0  0
 30 33  1  0  0  0  0
M  END
> <ChemID>
100208

> <source_casrn>
78-09-1

> <CAS>
78-09-1

> <SMILES>
CCOC(OCC)(OCC)OCC

> <NAME>
ETHANE, 1,1',1'',1'''-[METHANETETRAYLTETRAKIS(OX

> <preferred_name>
Ethane, 1,1',1'',1'''-[methanetetrayltetrakis(oxy)]tetrakis-

> <iupac>
triethoxymethoxyethane

> <MPID>
19290

> <dsstox_substance_id>
DTXSID1075278

> <Canonical_QSARr>
CCOC(OCC)(OCC)OCC

> <InChI_Code_QSARr>
InChI=1S/C9H20O4/c1-5-10-9(11-6-2,12-7-3)13-8-4/h5-8H2,1-4H3

> <InChI Key_QSARr>
CWLNAJYDRSIKJS-UHFFFAOYSA-N

> <Salt_Solvent>
?

> <BP>
159.5

$$$$
100213
  -INDIGO-08031720192D

 40 39  0  0  0  0  0  0  0  0999 V2000
    1.3856   -5.6001    0.0000 C   0  0  0  0  0  0  0  0  0  0  0  0
    1.3856   -7.2000    0.0000 H   0  0  0  0  0  0  0  0  0  0  0  0
    0.0000   -6.4000    0.0000 H   0  0  0  0  0  0  0  0  0  0  0  0
    0.0000   -4.7999    0.0000 H   0  0  0  0  0  0  0  0  0  0  0  0
    2.7712   -4.7999    0.0000 C   0  0  0  0  0  0  0  0  0  0  0  0
    2.7712   -3.2000    0.0000 C   0  0  0  0  0  0  0  0  0  0  0  0
    4.1570   -2.4000    0.0000 H   0  0  0  0  0  0  0  0  0  0  0  0
    1.3856   -2.4000    0.0000 C   0  0  0  0  0  0  0  0  0  0  0  0
    0.4116   -3.6694    0.0000 H   0  0  0  0  0  0  0  0  0  0  0  0
   -0.2006   -2.6089    0.0000 H   0  0  0  0  0  0  0  0  0  0  0  0
    1.3856   -0.7999    0.0000 C   0  0  0  0  0  0  0  0  0  0  0  0
    2.3596    0.4694    0.0000 H   0  0  0  0  0  0  0  0  0  0  0  0
    2.9720   -0.5911    0.0000 H   0  0  0  0  0  0  0  0  0  0  0  0
    0.0000    0.0000    0.0000 C   0  0  0  0  0  0  0  0  0  0  0  0
   -0.8000   -1.3856    0.0000 O   0  0  0  0  0  0  0  0  0  0  0  0
   -2.3757   -1.6635    0.0000 C   0  0  0  0  0  0  0  0  0  0  0  0
   -2.9229   -3.1669    0.0000 C   0  0  0  0  0  0  0  0  0  0  0  0
   -1.4194   -3.7143    0.0000 H   0  0  0  0  0  0  0  0  0  0  0  0
   -3.4702   -4.6705    0.0000 C   0  0  0  0  0  0  0  0  0  0  0  0
   -4.0174   -6.1740    0.0000 H   0  0  0  0  0  0  0  0  0  0  0  0
   -5.0459   -4.9483    0.0000 H   0  0  0  0  0  0  0  0  0  0  0  0
   -2.4417   -5.8962    0.0000 H   0  0  0  0  0  0  0  0  0  0  0  0
   -4.4264   -2.6198    0.0000 C   0  0  0  0  0  0  0  0  0  0  0  0
   -5.9299   -2.0726    0.0000 H   0  0  0  0  0  0  0  0  0  0  0  0
   -5.6521   -3.6482    0.0000 H   0  0  0  0  0  0  0  0  0  0  0  0
   -4.7044   -1.0440    0.0000 H   0  0  0  0  0  0  0  0  0  0  0  0
   -3.4042   -0.4378    0.0000 O   0  0  0  0  0  0  0  0  0  0  0  0
    0.8000    1.3856    0.0000 C   0  0  0  0  0  0  0  0  0  0  0  0
    0.0000    2.7714    0.0000 H   0  0  0  0  0  0  0  0  0  0  0  0
    2.3757    1.6635    0.0000 C   0  0  0  0  0  0  0  0  0  0  0  0
    2.9230    3.1670    0.0000 H   0  0  0  0  0  0  0  0  0  0  0  0
    3.4042    0.4377    0.0000 H   0  0  0  0  0  0  0  0  0  0  0  0
   -1.2258    1.0284    0.0000 C   0  0  0  0  0  0  0  0  0  0  0  0
   -2.4513    2.0570    0.0000 H   0  0  0  0  0  0  0  0  0  0  0  0
   -2.7292    0.4812    0.0000 H   0  0  0  0  0  0  0  0  0  0  0  0
   -0.9478    2.6041    0.0000 H   0  0  0  0  0  0  0  0  0  0  0  0
    4.1570   -5.6001    0.0000 C   0  0  0  0  0  0  0  0  0  0  0  0
    5.5426   -6.4000    0.0000 H   0  0  0  0  0  0  0  0  0  0  0  0
    4.1570   -7.2000    0.0000 H   0  0  0  0  0  0  0  0  0  0  0  0
    5.5426   -4.7999    0.0000 H   0  0  0  0  0  0  0  0  0  0  0  0
  1  2  1  0  0  0  0
  1  3  1  0  0  0  0
  1  4  1  0  0  0  0
  1  5  1  0  0  0  0
  5  6  2  0  0  0  0
  6  7  1  0  0  0  0
  6  8  1  0  0  0  0
  8  9  1  0  0  0  0
  8 10  1  0  0  0  0
  8 11  1  0  0  0  0
 11 12  1  0  0  0  0
 11 13  1  0  0  0  0
 11 14  1  0  0  0  0
 14 15  1  0  0  0  0
 15 16  1  0  0  0  0
 16 17  1  0  0  0  0
 17 18  1  0  0  0  0
 17 19  1  0  0  0  0
 19 20  1  0  0  0  0
 19 21  1  0  0  0  0
 19 22  1  0  0  0  0
 17 23  1  0  0  0  0
 23 24  1  0  0  0  0
 23 25  1  0  0  0  0
 23 26  1  0  0  0  0
 16 27  2  0  0  0  0
 14 28  1  0  0  0  0
 28 29  1  0  0  0  0
 28 30  2  0  0  0  0
 30 31  1  0  0  0  0
 30 32  1  0  0  0  0
 14 33  1  0  0  0  0
 33 34  1  0  0  0  0
 33 35  1  0  0  0  0
 33 36  1  0  0  0  0
  5 37  1  0  0  0  0
 37 38  1  0  0  0  0
 37 39  1  0  0  0  0
 37 40  1  0  0  0  0
M  END
> <ChemID>
100213

> <source_casrn>
78-35-3

> <CAS>
78-35-3

> <SMILES>
CC(C)=CCCC(C)(C=C)OC(=O)C(C)C

> <NAME>
3,7-Dimethyl-1,6-octadien-3-yl isobutyrate

> <preferred_name>
Linalyl isobutyrate

> <iupac>
3,7-dimethylocta-1,6-dien-3-yl 2-methylpropanoate

> <MPID>
19294

> <dsstox_substance_id>
DTXSID6047490

> <Canonical_QSARr>
CC(C)=CCCC(C)(C=C)OC(=O)C(C)C

> <InChI_Code_QSARr>
InChI=1S/C14H24O2/c1-7-14(6,10-8-9-11(2)3)16-13(15)12(4)5/h7,9,12H,1,8,10H2,2-6H3

> <InChI Key_QSARr>
JZIARAQCPRDGAC-UHFFFAOYSA-N

> <Salt_Solvent>
?

> <BP>
229.0

$$$$
100217
  -INDIGO-08031720192D

 24 24  0  0  0  0  0  0  0  0999 V2000
    1.5756   -0.2778    0.0000 C   0  0  0  0  0  0  0  0  0  0  0  0
    3.1514   -0.5557    0.0000 H   0  0  0  0  0  0  0  0  0  0  0  0
    2.6042    0.9478    0.0000 H   0  0  0  0  0  0  0  0  0  0  0  0
    2.6042   -1.5035    0.0000 H   0  0  0  0  0  0  0  0  0  0  0  0
    0.0000    0.0000    0.0000 C   0  0  0  0  0  0  0  0  0  0  0  0
   -1.3856    0.8000    0.0000 C   0  0  0  0  0  0  0  0  0  0  0  0
   -0.3572    2.0257    0.0000 H   0  0  0  0  0  0  0  0  0  0  0  0
   -2.4141    2.0257    0.0000 H   0  0  0  0  0  0  0  0  0  0  0  0
   -2.7713    0.0000    0.0000 C   0  0  0  0  0  0  0  0  0  0  0  0
   -4.1569    0.8000    0.0000 C   0  0  0  0  0  0  0  0  0  0  0  0
   -5.5426    1.6001    0.0000 H   0  0  0  0  0  0  0  0  0  0  0  0
   -5.5426    0.0000    0.0000 H   0  0  0  0  0  0  0  0  0  0  0  0
   -4.1569    2.4000    0.0000 H   0  0  0  0  0  0  0  0  0  0  0  0
   -2.7713   -1.6000    0.0000 C   0  0  0  0  0  0  0  0  0  0  0  0
   -4.1569   -2.4000    0.0000 H   0  0  0  0  0  0  0  0  0  0  0  0
   -1.3856   -2.4000    0.0000 C   0  0  0  0  0  0  0  0  0  0  0  0
   -1.3856   -4.0000    0.0000 O   0  0  0  0  0  0  0  0  0  0  0  0
    0.0000   -1.6000    0.0000 C   0  0  0  0  0  0  0  0  0  0  0  0
    0.5472   -3.1035    0.0000 H   0  0  0  0  0  0  0  0  0  0  0  0
    1.5756   -1.3222    0.0000 H   0  0  0  0  0  0  0  0  0  0  0  0
    0.5472    1.5035    0.0000 C   0  0  0  0  0  0  0  0  0  0  0  0
    1.0945    3.0070    0.0000 H   0  0  0  0  0  0  0  0  0  0  0  0
    2.1229    1.7814    0.0000 H   0  0  0  0  0  0  0  0  0  0  0  0
    0.0000    3.0070    0.0000 H   0  0  0  0  0  0  0  0  0  0  0  0
  1  2  1  0  0  0  0
  1  3  1  0  0  0  0
  1  4  1  0  0  0  0
  1  5  1  0  0  0  0
  5  6  1  0  0  0  0
  6  7  1  0  0  0  0
  6  8  1  0  0  0  0
  6  9  1  0  0  0  0
  9 10  1  0  0  0  0
 10 11  1  0  0  0  0
 10 12  1  0  0  0  0
 10 13  1  0  0  0  0
  9 14  2  0  0  0  0
 14 15  1  0  0  0  0
 14 16  1  0  0  0  0
 16 17  2  0  0  0  0
 16 18  1  0  0  0  0
 18  5  1  0  0  0  0
 18 19  1  0  0  0  0
 18 20  1  0  0  0  0
  5 21  1  0  0  0  0
 21 22  1  0  0  0  0
 21 23  1  0  0  0  0
 21 24  1  0  0  0  0
M  END
> <ChemID>
100217

> <source_casrn>
78-59-1

> <CAS>
78-59-1

> <SMILES>
CC1CC(C)(C)CC(=O)C=1

> <NAME>
ISOPHORONE

> <preferred_name>
Isophorone

> <iupac>
3,5,5-trimethylcyclohex-2-en-1-one

> <MPID>
19298

> <dsstox_substance_id>
DTXSID8020759

> <Canonical_QSARr>
CC1CC(C)(C)CC(=O)C=1

> <InChI_Code_QSARr>
InChI=1S/C9H14O/c1-7-4-8(10)6-9(2,3)5-7/h4H,5-6H2,1-3H3

> <InChI Key_QSARr>
HJOVHMDZYOCNQW-UHFFFAOYSA-N

> <Salt_Solvent>
?

> <BP>
215.2

$$$$
100221
  -INDIGO-08031720192D

  8  7  0  0  0  0  0  0  0  0999 V2000
    0.8000    1.3856    0.0000 Br  0  0  0  0  0  0  0  0  0  0  0  0
    0.0000    0.0000    0.0000 C   0  0  0  0  0  0  0  0  0  0  0  0
    1.6000   -0.0000    0.0000 H   0  0  0  0  0  0  0  0  0  0  0  0
    0.8000   -1.3856    0.0000 H   0  0  0  0  0  0  0  0  0  0  0  0
   -1.6000    0.0000    0.0000 C   0  0  0  0  0  0  0  0  0  0  0  0
   -3.2000    0.0000    0.0000 H   0  0  0  0  0  0  0  0  0  0  0  0
   -2.4000   -1.3856    0.0000 Br  0  0  0  0  0  0  0  0  0  0  0  0
   -2.4000    1.3856    0.0000 Br  0  0  0  0  0  0  0  0  0  0  0  0
  1  2  1  0  0  0  0
  2  3  1  0  0  0  0
  2  4  1  0  0  0  0
  2  5  1  0  0  0  0
  5  6  1  0  0  0  0
  5  7  1  0  0  0  0
  5  8  1  0  0  0  0
M  END
> <ChemID>
100221

> <source_casrn>
78-74-0

> <CAS>
78-74-0

> <SMILES>
BrCC(Br)Br

> <NAME>
Ethane, 1,1,2-tribromo-

> <preferred_name>
Ethane, 1,1,2-tribromo-

> <iupac>
1,1,2-Tribromoethane

> <MPID>
19302

> <dsstox_substance_id>
DTXSID4058817

> <Canonical_QSARr>
BrCC(Br)Br

> <InChI_Code_QSARr>
InChI=1S/C2H3Br3/c3-1-2(4)5/h2H,1H2

> <InChI Key_QSARr>
QUMDOMSJJIFTCA-UHFFFAOYSA-N

> <Salt_Solvent>
?

> <BP>
188.93

$$$$
100225
  -INDIGO-08031720192D

 17 16  0  0  0  0  0  0  0  0999 V2000
   -0.0000    0.0000    0.0000 C   0  0  0  0  0  0  0  0  0  0  0  0
    0.8000   -1.3856    0.0000 H   0  0  0  0  0  0  0  0  0  0  0  0
   -1.3857   -0.8000    0.0000 C   0  0  0  0  0  0  0  0  0  0  0  0
   -2.7713   -1.6000    0.0000 H   0  0  0  0  0  0  0  0  0  0  0  0
   -1.3857   -2.4000    0.0000 H   0  0  0  0  0  0  0  0  0  0  0  0
   -2.7713    0.0000    0.0000 H   0  0  0  0  0  0  0  0  0  0  0  0
   -0.8000    1.3856    0.0000 C   0  0  0  0  0  0  0  0  0  0  0  0
   -1.6001    2.7713    0.0000 H   0  0  0  0  0  0  0  0  0  0  0  0
   -0.0000    2.7713    0.0000 H   0  0  0  0  0  0  0  0  0  0  0  0
   -2.4000    1.3856    0.0000 H   0  0  0  0  0  0  0  0  0  0  0  0
    1.5036    0.5472    0.0000 C   0  0  0  0  0  0  0  0  0  0  0  0
    1.1572    2.1093    0.0000 H   0  0  0  0  0  0  0  0  0  0  0  0
    2.3631    1.8967    0.0000 H   0  0  0  0  0  0  0  0  0  0  0  0
    2.7292   -0.4813    0.0000 C   0  0  0  0  0  0  0  0  0  0  0  0
    3.9548   -1.5097    0.0000 H   0  0  0  0  0  0  0  0  0  0  0  0
    4.2327    0.0660    0.0000 H   0  0  0  0  0  0  0  0  0  0  0  0
    2.4513   -2.0569    0.0000 H   0  0  0  0  0  0  0  0  0  0  0  0
  1  2  1  0  0  0  0
  1  3  1  0  0  0  0
  3  4  1  0  0  0  0
  3  5  1  0  0  0  0
  3  6  1  0  0  0  0
  1  7  1  0  0  0  0
  7  8  1  0  0  0  0
  7  9  1  0  0  0  0
  7 10  1  0  0  0  0
  1 11  1  0  0  0  0
 11 12  1  0  0  0  0
 11 13  1  0  0  0  0
 11 14  1  0  0  0  0
 14 15  1  0  0  0  0
 14 16  1  0  0  0  0
 14 17  1  0  0  0  0
M  END
> <ChemID>
100225

> <source_casrn>
78-78-4

> <CAS>
78-78-4

> <SMILES>
CCC(C)C

> <NAME>
ISOPENTANE

> <preferred_name>
2-Methylbutane

> <iupac>
2-methylbutane

> <MPID>
19306

> <dsstox_substance_id>
DTXSID8025468

> <Canonical_QSARr>
CCC(C)C

> <InChI_Code_QSARr>
InChI=1S/C5H12/c1-4-5(2)3/h5H,4H2,1-3H3

> <InChI Key_QSARr>
QWTDNUCVQCZILF-UHFFFAOYSA-N

> <Salt_Solvent>
?

> <BP>
27.8

$$$$
100229
  -INDIGO-08031720192D

 12 11  0  0  0  0  0  0  0  0999 V2000
    0.0000    1.6000    0.0000 C   0  0  0  0  0  0  0  0  0  0  0  0
    0.0000    0.0000    0.0000 C   0  0  0  0  0  0  0  0  0  0  0  0
    0.0000   -1.6000    0.0000 H   0  0  0  0  0  0  0  0  0  0  0  0
   -1.6000    0.0000    0.0000 C   0  0  0  0  0  0  0  0  0  0  0  0
   -3.2000    0.0000    0.0000 H   0  0  0  0  0  0  0  0  0  0  0  0
   -2.4000   -1.3856    0.0000 H   0  0  0  0  0  0  0  0  0  0  0  0
   -2.4000    1.3856    0.0000 H   0  0  0  0  0  0  0  0  0  0  0  0
    1.6000    0.0000    0.0000 C   0  0  0  0  0  0  0  0  0  0  0  0
    3.2000    0.0000    0.0000 H   0  0  0  0  0  0  0  0  0  0  0  0
    2.4000   -1.3856    0.0000 H   0  0  0  0  0  0  0  0  0  0  0  0
    2.4000    1.3856    0.0000 H   0  0  0  0  0  0  0  0  0  0  0  0
   -0.0000    3.2000    0.0000 N   0  0  0  0  0  0  0  0  0  0  0  0
  1  2  1  0  0  0  0
  2  3  1  0  0  0  0
  2  4  1  0  0  0  0
  4  5  1  0  0  0  0
  4  6  1  0  0  0  0
  4  7  1  0  0  0  0
  2  8  1  0  0  0  0
  8  9  1  0  0  0  0
  8 10  1  0  0  0  0
  8 11  1  0  0  0  0
  1 12  3  0  0  0  0
M  END
> <ChemID>
100229

> <source_casrn>
78-82-0

> <CAS>
78-82-0

> <SMILES>
CC(C)C#N

> <NAME>
2-METHYLPROPANENITRILE

> <preferred_name>
2-Methylpropanenitrile

> <iupac>
2-methylpropanenitrile

> <MPID>
19310

> <dsstox_substance_id>
DTXSID5026461

> <Canonical_QSARr>
CC(C)C#N

> <InChI_Code_QSARr>
InChI=1S/C4H7N/c1-4(2)3-5/h4H,1-2H3

> <InChI Key_QSARr>
LRDFRRGEGBBSRN-UHFFFAOYSA-N

> <Salt_Solvent>
?

> <BP>
103.9

$$$$
100233
  -INDIGO-08031720192D

 14 13  0  0  0  0  0  0  0  0999 V2000
   -0.6123    1.4782    0.0000 Cl  0  0  0  0  0  0  0  0  0  0  0  0
    0.0000    0.0000    0.0000 C   0  0  0  0  0  0  0  0  0  0  0  0
    0.6123    1.4782    0.0000 H   0  0  0  0  0  0  0  0  0  0  0  0
    1.3856   -0.8000    0.0000 C   0  0  0  0  0  0  0  0  0  0  0  0
    2.7713   -1.6000    0.0000 H   0  0  0  0  0  0  0  0  0  0  0  0
    2.7713    0.0000    0.0000 H   0  0  0  0  0  0  0  0  0  0  0  0
    1.3856   -2.4000    0.0000 H   0  0  0  0  0  0  0  0  0  0  0  0
   -1.3856   -0.8000    0.0000 C   0  0  0  0  0  0  0  0  0  0  0  0
   -1.9980   -2.2782    0.0000 H   0  0  0  0  0  0  0  0  0  0  0  0
   -0.7733   -2.2782    0.0000 H   0  0  0  0  0  0  0  0  0  0  0  0
   -2.7713    0.0000    0.0000 C   0  0  0  0  0  0  0  0  0  0  0  0
   -4.1569    0.8000    0.0000 H   0  0  0  0  0  0  0  0  0  0  0  0
   -4.1569   -0.8000    0.0000 H   0  0  0  0  0  0  0  0  0  0  0  0
   -2.7713    1.6000    0.0000 H   0  0  0  0  0  0  0  0  0  0  0  0
  1  2  1  0  0  0  0
  2  3  1  0  0  0  0
  2  4  1  0  0  0  0
  4  5  1  0  0  0  0
  4  6  1  0  0  0  0
  4  7  1  0  0  0  0
  2  8  1  0  0  0  0
  8  9  1  0  0  0  0
  8 10  1  0  0  0  0
  8 11  1  0  0  0  0
 11 12  1  0  0  0  0
 11 13  1  0  0  0  0
 11 14  1  0  0  0  0
M  END
> <ChemID>
100233

> <source_casrn>
78-86-4

> <CAS>
78-86-4

> <SMILES>
CCC(C)Cl

> <NAME>
2-CHLOROBUTANE

> <preferred_name>
2-Chlorobutane

> <iupac>
2-chlorobutane

> <MPID>
19314

> <dsstox_substance_id>
DTXSID9023966

> <Canonical_QSARr>
CCC(C)Cl

> <InChI_Code_QSARr>
InChI=1S/C4H9Cl/c1-3-4(2)5/h4H,3H2,1-2H3

> <InChI Key_QSARr>
BSPCSKHALVHRSR-UHFFFAOYSA-N

> <Salt_Solvent>
?

> <BP>
68.0

$$$$
100237
  -INDIGO-08031720192D

 15 14  0  0  0  0  0  0  0  0999 V2000
    2.7292   -0.4813    0.0000 N   0  0  0  0  0  0  0  0  0  0  0  0
    4.2327    0.0660    0.0000 H   0  0  0  0  0  0  0  0  0  0  0  0
    2.4513   -2.0569    0.0000 H   0  0  0  0  0  0  0  0  0  0  0  0
    1.5036    0.5472    0.0000 C   0  0  0  0  0  0  0  0  0  0  0  0
    1.1572    2.1093    0.0000 H   0  0  0  0  0  0  0  0  0  0  0  0
    2.3631    1.8967    0.0000 H   0  0  0  0  0  0  0  0  0  0  0  0
   -0.0000    0.0000    0.0000 C   0  0  0  0  0  0  0  0  0  0  0  0
    0.8000   -1.3856    0.0000 H   0  0  0  0  0  0  0  0  0  0  0  0
   -0.8000    1.3856    0.0000 N   0  0  0  0  0  0  0  0  0  0  0  0
   -0.0000    2.7713    0.0000 H   0  0  0  0  0  0  0  0  0  0  0  0
   -2.4000    1.3856    0.0000 H   0  0  0  0  0  0  0  0  0  0  0  0
   -1.3857   -0.8000    0.0000 C   0  0  0  0  0  0  0  0  0  0  0  0
   -2.7713   -1.6000    0.0000 H   0  0  0  0  0  0  0  0  0  0  0  0
   -1.3857   -2.4000    0.0000 H   0  0  0  0  0  0  0  0  0  0  0  0
   -2.7713    0.0000    0.0000 H   0  0  0  0  0  0  0  0  0  0  0  0
  1  2  1  0  0  0  0
  1  3  1  0  0  0  0
  1  4  1  0  0  0  0
  4  5  1  0  0  0  0
  4  6  1  0  0  0  0
  4  7  1  0  0  0  0
  7  8  1  0  0  0  0
  7  9  1  0  0  0  0
  9 10  1  0  0  0  0
  9 11  1  0  0  0  0
  7 12  1  0  0  0  0
 12 13  1  0  0  0  0
 12 14  1  0  0  0  0
 12 15  1  0  0  0  0
M  END
> <ChemID>
100237

> <source_casrn>
78-90-0

> <CAS>
78-90-0

> <SMILES>
CC(N)CN

> <NAME>
1,2-DIAMINOPROPANE

> <preferred_name>
1,2-Diaminopropane

> <iupac>
propane-1,2-diamine

> <MPID>
19318

> <dsstox_substance_id>
DTXSID4021761

> <Canonical_QSARr>
CC(N)CN

> <InChI_Code_QSARr>
InChI=1S/C3H10N2/c1-3(5)2-4/h3H,2,4-5H2,1H3

> <InChI Key_QSARr>
AOHJOMMDDJHIJH-UHFFFAOYSA-N

> <Salt_Solvent>
?

> <BP>
119.5

$$$$
100241
  -INDIGO-08031720192D

 11 10  0  0  0  0  0  0  0  0999 V2000
    0.0000   -1.6000    0.0000 O   0  0  0  0  0  0  0  0  0  0  0  0
    0.0000    0.0000    0.0000 C   0  0  0  0  0  0  0  0  0  0  0  0
    1.3856    0.8000    0.0000 C   0  0  0  0  0  0  0  0  0  0  0  0
    1.3856    2.4000    0.0000 H   0  0  0  0  0  0  0  0  0  0  0  0
    2.7713    0.0000    0.0000 C   0  0  0  0  0  0  0  0  0  0  0  0
    4.1569    0.8000    0.0000 H   0  0  0  0  0  0  0  0  0  0  0  0
    2.7713   -1.6000    0.0000 H   0  0  0  0  0  0  0  0  0  0  0  0
   -1.3856    0.8000    0.0000 C   0  0  0  0  0  0  0  0  0  0  0  0
   -2.7713    1.6000    0.0000 H   0  0  0  0  0  0  0  0  0  0  0  0
   -2.7713    0.0000    0.0000 H   0  0  0  0  0  0  0  0  0  0  0  0
   -1.3856    2.4000    0.0000 H   0  0  0  0  0  0  0  0  0  0  0  0
  1  2  2  0  0  0  0
  2  3  1  0  0  0  0
  3  4  1  0  0  0  0
  3  5  2  0  0  0  0
  5  6  1  0  0  0  0
  5  7  1  0  0  0  0
  2  8  1  0  0  0  0
  8  9  1  0  0  0  0
  8 10  1  0  0  0  0
  8 11  1  0  0  0  0
M  END
> <ChemID>
100241

> <source_casrn>
78-94-4

> <CAS>
78-94-4

> <SMILES>
CC(=O)C=C

> <NAME>
METHYLVINYLKETONE

> <preferred_name>
Methyl vinyl ketone

> <iupac>
but-3-en-2-one

> <MPID>
19322

> <dsstox_substance_id>
DTXSID3025671

> <Canonical_QSARr>
CC(=O)C=C

> <InChI_Code_QSARr>
InChI=1S/C4H6O/c1-3-4(2)5/h3H,1H2,2H3

> <InChI Key_QSARr>
FUSUHKVFWTUUBE-UHFFFAOYSA-N

> <Salt_Solvent>
?

> <BP>
81.4

$$$$
100245
  -INDIGO-08031720192D

  9  8  0  0  0  0  0  0  0  0999 V2000
   -0.0000    0.0000    0.0000 C   0  0  0  0  0  0  0  0  0  0  0  0
    1.3856    0.8000    0.0000 H   0  0  0  0  0  0  0  0  0  0  0  0
   -0.0000    1.6000    0.0000 H   0  0  0  0  0  0  0  0  0  0  0  0
    1.3856   -0.8000    0.0000 H   0  0  0  0  0  0  0  0  0  0  0  0
   -1.3856   -0.8000    0.0000 C   0  0  0  0  0  0  0  0  0  0  0  0
   -2.7713    0.0000    0.0000 C   0  0  0  0  0  0  0  0  0  0  0  0
   -4.1569   -0.8000    0.0000 H   0  0  0  0  0  0  0  0  0  0  0  0
   -2.7713    1.6000    0.0000 O   0  0  0  0  0  0  0  0  0  0  0  0
   -1.3856   -2.4000    0.0000 O   0  0  0  0  0  0  0  0  0  0  0  0
  1  2  1  0  0  0  0
  1  3  1  0  0  0  0
  1  4  1  0  0  0  0
  1  5  1  0  0  0  0
  5  6  1  0  0  0  0
  6  7  1  0  0  0  0
  6  8  2  0  0  0  0
  5  9  2  0  0  0  0
M  END
> <ChemID>
100245

> <source_casrn>
78-98-8

> <CAS>
78-98-8

> <SMILES>
CC(=O)C=O

> <NAME>
METHYL GLYOXAL

> <preferred_name>
Methyl glyoxal

> <iupac>
2-oxopropanal

> <MPID>
19326

> <dsstox_substance_id>
DTXSID0021628

> <Canonical_QSARr>
CC(=O)C=O

> <InChI_Code_QSARr>
InChI=1S/C3H4O2/c1-3(5)2-4/h2H,1H3

> <InChI Key_QSARr>
AIJULSRZWUXGPQ-UHFFFAOYSA-N

> <Salt_Solvent>
?

> <BP>
72.0

$$$$
100249
  -INDIGO-08031720192D

  7  6  0  0  0  0  0  0  0  0999 V2000
    0.8000   -1.3856    0.0000 Cl  0  0  0  0  0  0  0  0  0  0  0  0
    0.0000    0.0000    0.0000 C   0  0  0  0  0  0  0  0  0  0  0  0
    1.6000    0.0000    0.0000 H   0  0  0  0  0  0  0  0  0  0  0  0
    0.8000    1.3856    0.0000 Cl  0  0  0  0  0  0  0  0  0  0  0  0
   -1.6000    0.0000    0.0000 C   0  0  0  0  0  0  0  0  0  0  0  0
   -2.4000    1.3856    0.0000 H   0  0  0  0  0  0  0  0  0  0  0  0
   -2.4000   -1.3856    0.0000 O   0  0  0  0  0  0  0  0  0  0  0  0
  1  2  1  0  0  0  0
  2  3  1  0  0  0  0
  2  4  1  0  0  0  0
  2  5  1  0  0  0  0
  5  6  1  0  0  0  0
  5  7  2  0  0  0  0
M  END
> <ChemID>
100249

> <source_casrn>
79-02-7

> <CAS>
79-02-7

> <SMILES>
O=CC(Cl)Cl

> <NAME>
DICHLOROACETALDEHYDE

> <preferred_name>
Dichloroacetaldehyde

> <iupac>
dichloroacetaldehyde

> <MPID>
19330

> <dsstox_substance_id>
DTXSID3021560

> <Canonical_QSARr>
O=CC(Cl)Cl

> <InChI_Code_QSARr>
InChI=1S/C2H2Cl2O/c3-2(4)1-5/h1-2H

> <InChI Key_QSARr>
NWQWQKUXRJYXFH-UHFFFAOYSA-N

> <Salt_Solvent>
?

> <BP>
89.2

$$$$
100253
  -INDIGO-08031720192D

 10  9  0  0  0  0  0  0  0  0999 V2000
    1.3856   -0.8000    0.0000 N   0  0  0  0  0  0  0  0  0  0  0  0
    2.7713    0.0000    0.0000 H   0  0  0  0  0  0  0  0  0  0  0  0
    1.3856   -2.4000    0.0000 H   0  0  0  0  0  0  0  0  0  0  0  0
    0.0000    0.0000    0.0000 C   0  0  0  0  0  0  0  0  0  0  0  0
    0.0000    1.6000    0.0000 O   0  0  0  0  0  0  0  0  0  0  0  0
   -1.3856   -0.8000    0.0000 C   0  0  0  0  0  0  0  0  0  0  0  0
   -1.3856   -2.4000    0.0000 H   0  0  0  0  0  0  0  0  0  0  0  0
   -2.7713    0.0000    0.0000 C   0  0  0  0  0  0  0  0  0  0  0  0
   -4.1569   -0.8000    0.0000 H   0  0  0  0  0  0  0  0  0  0  0  0
   -2.7713    1.6000    0.0000 H   0  0  0  0  0  0  0  0  0  0  0  0
  1  2  1  0  0  0  0
  1  3  1  0  0  0  0
  1  4  1  0  0  0  0
  4  5  2  0  0  0  0
  4  6  1  0  0  0  0
  6  7  1  0  0  0  0
  6  8  2  0  0  0  0
  8  9  1  0  0  0  0
  8 10  1  0  0  0  0
M  END
> <ChemID>
100253

> <source_casrn>
79-06-1

> <CAS>
79-06-1

> <SMILES>
C=CC(N)=O

> <NAME>
ACRYLAMIDE

> <preferred_name>
Acrylamide

> <iupac>
prop-2-enamide

> <MPID>
19334

> <dsstox_substance_id>
DTXSID5020027

> <Canonical_QSARr>
C=CC(N)=O

> <InChI_Code_QSARr>
InChI=1S/C3H5NO/c1-2-3(4)5/h2H,1H2,(H2,4,5)

> <InChI Key_QSARr>
HRPVXLWXLXDGHG-UHFFFAOYSA-N

> <Salt_Solvent>
?

> <BP>
192.6

$$$$
100257
  -INDIGO-08031720192D

  9  8  0  0  0  0  0  0  0  0999 V2000
    2.7713    0.0000    0.0000 O   0  0  0  0  0  0  0  0  0  0  0  0
    4.1569    0.8000    0.0000 H   0  0  0  0  0  0  0  0  0  0  0  0
    1.3856    0.8000    0.0000 C   0  0  0  0  0  0  0  0  0  0  0  0
    1.3856    2.4000    0.0000 O   0  0  0  0  0  0  0  0  0  0  0  0
    0.0000    0.0000    0.0000 C   0  0  0  0  0  0  0  0  0  0  0  0
    0.0000   -1.6000    0.0000 H   0  0  0  0  0  0  0  0  0  0  0  0
   -1.3856    0.8000    0.0000 C   0  0  0  0  0  0  0  0  0  0  0  0
   -2.7713    0.0000    0.0000 H   0  0  0  0  0  0  0  0  0  0  0  0
   -1.3856    2.4000    0.0000 H   0  0  0  0  0  0  0  0  0  0  0  0
  1  2  1  0  0  0  0
  1  3  1  0  0  0  0
  3  4  2  0  0  0  0
  3  5  1  0  0  0  0
  5  6  1  0  0  0  0
  5  7  2  0  0  0  0
  7  8  1  0  0  0  0
  7  9  1  0  0  0  0
M  END
> <ChemID>
100257

> <source_casrn>
79-10-7

> <CAS>
79-10-7

> <SMILES>
C=CC(O)=O

> <NAME>
ACRYLIC ACID

> <preferred_name>
Acrylic acid

> <iupac>
prop-2-enoic acid

> <MPID>
19338

> <dsstox_substance_id>
DTXSID0039229

> <Canonical_QSARr>
C=CC(O)=O

> <InChI_Code_QSARr>
InChI=1S/C3H4O2/c1-2-3(4)5/h2H,1H2,(H,4,5)

> <InChI Key_QSARr>
NIXOWILDQLNWCW-UHFFFAOYSA-N

> <Salt_Solvent>
?

> <BP>
141.2

$$$$
100261
  -INDIGO-08031720192D

  9  8  0  0  0  0  0  0  0  0999 V2000
    1.3856   -2.4000    0.0000 O   0  0  0  0  0  0  0  0  0  0  0  0
    1.3856   -0.8000    0.0000 C   0  0  0  0  0  0  0  0  0  0  0  0
    2.7713    0.0000    0.0000 O   0  0  0  0  0  0  0  0  0  0  0  0
    4.1569   -0.8000    0.0000 O   0  0  0  0  0  0  0  0  0  0  0  0
    5.5426    0.0000    0.0000 H   0  0  0  0  0  0  0  0  0  0  0  0
    0.0000    0.0000    0.0000 C   0  0  0  0  0  0  0  0  0  0  0  0
   -1.3856    0.8000    0.0000 H   0  0  0  0  0  0  0  0  0  0  0  0
    0.0000    1.6000    0.0000 H   0  0  0  0  0  0  0  0  0  0  0  0
   -1.3856   -0.8000    0.0000 H   0  0  0  0  0  0  0  0  0  0  0  0
  1  2  2  0  0  0  0
  2  3  1  0  0  0  0
  3  4  1  0  0  0  0
  4  5  1  0  0  0  0
  2  6  1  0  0  0  0
  6  7  1  0  0  0  0
  6  8  1  0  0  0  0
  6  9  1  0  0  0  0
M  END
> <ChemID>
100261

> <source_casrn>
79-21-0

> <CAS>
79-21-0

> <SMILES>
CC(=O)OO

> <NAME>
PEROXYACETIC ACID

> <preferred_name>
Peracetic acid

> <iupac>
ethaneperoxoic acid

> <MPID>
19342

> <dsstox_substance_id>
DTXSID1025853

> <Canonical_QSARr>
CC(=O)OO

> <InChI_Code_QSARr>
InChI=1S/C2H4O3/c1-2(3)5-4/h4H,1H3

> <InChI Key_QSARr>
KFSLWBXXFJQRDL-UHFFFAOYSA-N

> <Salt_Solvent>
?

> <BP>
110.0

$$$$
100265
  -INDIGO-08031720192D

  6  5  0  0  0  0  0  0  0  0999 V2000
    0.0000    0.0000    0.0000 C   0  0  0  0  0  0  0  0  0  0  0  0
    1.6000    0.0000    0.0000 C   0  0  0  0  0  0  0  0  0  0  0  0
    2.4000    1.3856    0.0000 Br  0  0  0  0  0  0  0  0  0  0  0  0
    2.4000   -1.3856    0.0000 Br  0  0  0  0  0  0  0  0  0  0  0  0
   -0.8000    1.3856    0.0000 Br  0  0  0  0  0  0  0  0  0  0  0  0
   -0.8000   -1.3856    0.0000 Br  0  0  0  0  0  0  0  0  0  0  0  0
  1  2  2  0  0  0  0
  2  3  1  0  0  0  0
  2  4  1  0  0  0  0
  1  5  1  0  0  0  0
  1  6  1  0  0  0  0
M  END
> <ChemID>
100265

> <source_casrn>
79-28-7

> <CAS>
79-28-7

> <SMILES>
BrC(Br)=C(Br)Br

> <NAME>
Ethene, tetrabromo-

> <preferred_name>
Ethene, 1,1,2,2-tetrabromo-

> <iupac>
1,1,2,2-tetrabromoethene

> <MPID>
19346

> <dsstox_substance_id>
DTXSID8058821

> <Canonical_QSARr>
BrC(Br)=C(Br)Br

> <InChI_Code_QSARr>
InChI=1S/C2Br4/c3-1(4)2(5)6

> <InChI Key_QSARr>
OVRRJBSHBOXFQE-UHFFFAOYSA-N

> <Salt_Solvent>
?

> <BP>
226.0

$$$$
100269
  -INDIGO-08031720192D

  8  7  0  0  0  0  0  0  0  0999 V2000
    0.8000    1.3856    0.0000 Cl  0  0  0  0  0  0  0  0  0  0  0  0
    0.0000    0.0000    0.0000 C   0  0  0  0  0  0  0  0  0  0  0  0
    1.6000   -0.0000    0.0000 H   0  0  0  0  0  0  0  0  0  0  0  0
   -1.6000    0.0000    0.0000 C   0  0  0  0  0  0  0  0  0  0  0  0
   -3.2000    0.0000    0.0000 H   0  0  0  0  0  0  0  0  0  0  0  0
   -2.4000   -1.3856    0.0000 Cl  0  0  0  0  0  0  0  0  0  0  0  0
   -2.4000    1.3856    0.0000 Cl  0  0  0  0  0  0  0  0  0  0  0  0
    0.8000   -1.3856    0.0000 Cl  0  0  0  0  0  0  0  0  0  0  0  0
  1  2  1  0  0  0  0
  2  3  1  0  0  0  0
  2  4  1  0  0  0  0
  4  5  1  0  0  0  0
  4  6  1  0  0  0  0
  4  7  1  0  0  0  0
  2  8  1  0  0  0  0
M  END
> <ChemID>
100269

> <source_casrn>
79-34-5

> <CAS>
79-34-5

> <SMILES>
ClC(Cl)C(Cl)Cl

> <NAME>
1,1,2,2-TETRACHLOROETHANE

> <preferred_name>
1,1,2,2-Tetrachloroethane

> <iupac>
1,1,2,2-tetrachloroethane

> <MPID>
19350

> <dsstox_substance_id>
DTXSID7021318

> <Canonical_QSARr>
ClC(Cl)C(Cl)Cl

> <InChI_Code_QSARr>
InChI=1S/C2H2Cl4/c3-1(4)2(5)6/h1-2H

> <InChI Key_QSARr>
QPFMBZIOSGYJDE-UHFFFAOYSA-N

> <Salt_Solvent>
?

> <BP>
146.5

$$$$
100273
  -INDIGO-08031720192D

  6  5  0  0  0  0  0  0  0  0999 V2000
    0.0000    0.0000    0.0000 C   0  0  0  0  0  0  0  0  0  0  0  0
    1.6000    0.0000    0.0000 C   0  0  0  0  0  0  0  0  0  0  0  0
    2.4000    1.3856    0.0000 F   0  0  0  0  0  0  0  0  0  0  0  0
    2.4000   -1.3856    0.0000 F   0  0  0  0  0  0  0  0  0  0  0  0
   -0.8000    1.3856    0.0000 Cl  0  0  0  0  0  0  0  0  0  0  0  0
   -0.8000   -1.3856    0.0000 F   0  0  0  0  0  0  0  0  0  0  0  0
  1  2  2  0  0  0  0
  2  3  1  0  0  0  0
  2  4  1  0  0  0  0
  1  5  1  0  0  0  0
  1  6  1  0  0  0  0
M  END
> <ChemID>
100273

> <source_casrn>
79-38-9

> <CAS>
79-38-9

> <SMILES>
FC(F)=C(F)Cl

> <NAME>
CHLOROTRIFLUOROETHYLENE

> <preferred_name>
Chlorotrifluoroethylene

> <iupac>
1-chloro-1,2,2-trifluoroethene

> <MPID>
19354

> <dsstox_substance_id>
DTXSID3026485

> <Canonical_QSARr>
FC(F)=C(F)Cl

> <InChI_Code_QSARr>
InChI=1S/C2ClF3/c3-1(4)2(5)6

> <InChI Key_QSARr>
UUAGAQFQZIEFAH-UHFFFAOYSA-N

> <Salt_Solvent>
?

> <BP>
-27.8

$$$$
100277
  -INDIGO-08031720192D

 13 12  0  0  0  0  0  0  0  0999 V2000
    1.6000    0.0000    0.0000 C   0  0  0  0  0  0  0  0  0  0  0  0
    3.2000    0.0000    0.0000 H   0  0  0  0  0  0  0  0  0  0  0  0
    2.4000   -1.3856    0.0000 H   0  0  0  0  0  0  0  0  0  0  0  0
    2.4000    1.3856    0.0000 H   0  0  0  0  0  0  0  0  0  0  0  0
    0.0000    0.0000    0.0000 C   0  0  0  0  0  0  0  0  0  0  0  0
    0.0000   -1.6000    0.0000 H   0  0  0  0  0  0  0  0  0  0  0  0
    0.0000    1.6000    0.0000 N   0  0  0  0  0  0  0  0  0  0  0  0
    1.3856    2.4000    0.0000 O   0  0  0  0  0  0  0  0  0  0  0  0
   -1.3856    2.4000    0.0000 O   0  0  0  0  0  0  0  0  0  0  0  0
   -1.6000    0.0000    0.0000 C   0  0  0  0  0  0  0  0  0  0  0  0
   -3.2000    0.0000    0.0000 H   0  0  0  0  0  0  0  0  0  0  0  0
   -2.4000   -1.3856    0.0000 H   0  0  0  0  0  0  0  0  0  0  0  0
   -2.4000    1.3856    0.0000 H   0  0  0  0  0  0  0  0  0  0  0  0
  1  2  1  0  0  0  0
  1  3  1  0  0  0  0
  1  4  1  0  0  0  0
  1  5  1  0  0  0  0
  5  6  1  0  0  0  0
  5  7  1  0  0  0  0
  7  8  2  0  0  0  0
  7  9  1  0  0  0  0
  5 10  1  0  0  0  0
 10 11  1  0  0  0  0
 10 12  1  0  0  0  0
 10 13  1  0  0  0  0
M  CHG  2   7   1   9  -1
M  END
> <ChemID>
100277

> <source_casrn>
79-46-9

> <CAS>
79-46-9

> <SMILES>
CC(C)[N+]([O-])=O

> <NAME>
2-NITROPROPANE

> <preferred_name>
2-Nitropropane

> <iupac>
2-nitropropane

> <MPID>
19358

> <dsstox_substance_id>
DTXSID6020981

> <Canonical_QSARr>
CC(C)[N+]([O-])=O

> <InChI_Code_QSARr>
InChI=1S/C3H7NO2/c1-3(2)4(5)6/h3H,1-2H3

> <InChI Key_QSARr>
FGLBSLMDCBOPQK-UHFFFAOYSA-N

> <Salt_Solvent>
?

> <BP>
120.2

$$$$
100281
  -INDIGO-08031720192D

 25 26  0  0  0  0  0  0  0  0999 V2000
   -0.0001    0.0000    0.0000 Si  0  0  0  0  0  0  0  0  0  0  0  0
    0.8597    1.3494    0.0000 Cl  0  0  0  0  0  0  0  0  0  0  0  0
   -0.3462    1.5621    0.0000 Cl  0  0  0  0  0  0  0  0  0  0  0  0
   -1.5757   -0.2778    0.0000 C   0  0  0  0  0  0  0  0  0  0  0  0
   -2.1230   -1.7813    0.0000 C   0  0  0  0  0  0  0  0  0  0  0  0
   -1.0945   -3.0071    0.0000 H   0  0  0  0  0  0  0  0  0  0  0  0
   -3.6986   -2.0591    0.0000 C   0  0  0  0  0  0  0  0  0  0  0  0
   -4.2459   -3.5627    0.0000 H   0  0  0  0  0  0  0  0  0  0  0  0
   -4.7270   -0.8335    0.0000 C   0  0  0  0  0  0  0  0  0  0  0  0
   -6.3028   -1.1113    0.0000 H   0  0  0  0  0  0  0  0  0  0  0  0
   -4.1799    0.6700    0.0000 C   0  0  0  0  0  0  0  0  0  0  0  0
   -5.2083    1.8957    0.0000 H   0  0  0  0  0  0  0  0  0  0  0  0
   -2.6041    0.9479    0.0000 C   0  0  0  0  0  0  0  0  0  0  0  0
   -2.0570    2.4513    0.0000 H   0  0  0  0  0  0  0  0  0  0  0  0
    1.3857   -0.8000    0.0000 C   0  0  0  0  0  0  0  0  0  0  0  0
    1.3857   -2.4000    0.0000 C   0  0  0  0  0  0  0  0  0  0  0  0
   -0.0001   -3.2000    0.0000 H   0  0  0  0  0  0  0  0  0  0  0  0
    2.7713   -3.2000    0.0000 C   0  0  0  0  0  0  0  0  0  0  0  0
    2.7713   -4.8000    0.0000 H   0  0  0  0  0  0  0  0  0  0  0  0
    4.1569   -2.4000    0.0000 C   0  0  0  0  0  0  0  0  0  0  0  0
    5.5426   -3.2000    0.0000 H   0  0  0  0  0  0  0  0  0  0  0  0
    4.1569   -0.8000    0.0000 C   0  0  0  0  0  0  0  0  0  0  0  0
    5.5426    0.0000    0.0000 H   0  0  0  0  0  0  0  0  0  0  0  0
    2.7713    0.0000    0.0000 C   0  0  0  0  0  0  0  0  0  0  0  0
    2.7713    1.6000    0.0000 H   0  0  0  0  0  0  0  0  0  0  0  0
  1  2  1  0  0  0  0
  1  3  1  0  0  0  0
  1  4  1  0  0  0  0
  4  5  1  0  0  0  0
  5  6  1  0  0  0  0
  5  7  2  0  0  0  0
  7  8  1  0  0  0  0
  7  9  1  0  0  0  0
  9 10  1  0  0  0  0
  9 11  2  0  0  0  0
 11 12  1  0  0  0  0
 11 13  1  0  0  0  0
 13  4  2  0  0  0  0
 13 14  1  0  0  0  0
  1 15  1  0  0  0  0
 15 16  1  0  0  0  0
 16 17  1  0  0  0  0
 16 18  2  0  0  0  0
 18 19  1  0  0  0  0
 18 20  1  0  0  0  0
 20 21  1  0  0  0  0
 20 22  2  0  0  0  0
 22 23  1  0  0  0  0
 22 24  1  0  0  0  0
 24 15  2  0  0  0  0
 24 25  1  0  0  0  0
M  END
> <ChemID>
100281

> <source_casrn>
80-10-4

> <CAS>
80-10-4

> <SMILES>
Cl[Si](Cl)(c1ccccc1)c1ccccc1

> <NAME>
DICHLORODIPHENYLSILANE

> <preferred_name>
Dichlorodiphenylsilane

> <iupac>
dichloro(diphenyl)silane

> <MPID>
19362

> <dsstox_substance_id>
DTXSID2026494

> <Canonical_QSARr>
Cl[Si](Cl)(c1ccccc1)c1ccccc1

> <InChI_Code_QSARr>
InChI=1S/C12H10Cl2Si/c13-15(14,11-7-3-1-4-8-11)12-9-5-2-6-10-12/h1-10H

> <InChI Key_QSARr>
OSXYHAQZDCICNX-UHFFFAOYSA-N

> <Salt_Solvent>
?

> <BP>
305.0

$$$$
100285
  -INDIGO-08031720192D

 21 20  0  0  0  0  0  0  0  0999 V2000
   -1.3856    0.8000    0.0000 C   0  0  0  0  0  0  0  0  0  0  0  0
    0.0000    0.0000    0.0000 C   0  0  0  0  0  0  0  0  0  0  0  0
    0.8000    1.3856    0.0000 C   0  0  0  0  0  0  0  0  0  0  0  0
    1.6000    2.7713    0.0000 H   0  0  0  0  0  0  0  0  0  0  0  0
    2.3999    1.3856    0.0000 H   0  0  0  0  0  0  0  0  0  0  0  0
    0.0000    2.7713    0.0000 H   0  0  0  0  0  0  0  0  0  0  0  0
   -0.8001   -1.3856    0.0000 C   0  0  0  0  0  0  0  0  0  0  0  0
   -1.6000   -2.7713    0.0000 H   0  0  0  0  0  0  0  0  0  0  0  0
    0.0000   -2.7713    0.0000 H   0  0  0  0  0  0  0  0  0  0  0  0
   -2.4000   -1.3856    0.0000 H   0  0  0  0  0  0  0  0  0  0  0  0
    1.3857   -0.8000    0.0000 O   0  0  0  0  0  0  0  0  0  0  0  0
    2.7713    0.0000    0.0000 H   0  0  0  0  0  0  0  0  0  0  0  0
   -2.7713    0.0000    0.0000 O   0  0  0  0  0  0  0  0  0  0  0  0
   -4.1570    0.8000    0.0000 C   0  0  0  0  0  0  0  0  0  0  0  0
   -3.5447    2.2782    0.0000 H   0  0  0  0  0  0  0  0  0  0  0  0
   -4.7693    2.2782    0.0000 H   0  0  0  0  0  0  0  0  0  0  0  0
   -5.5426    0.0000    0.0000 C   0  0  0  0  0  0  0  0  0  0  0  0
   -6.9282   -0.8000    0.0000 H   0  0  0  0  0  0  0  0  0  0  0  0
   -6.9282    0.8000    0.0000 H   0  0  0  0  0  0  0  0  0  0  0  0
   -5.5426   -1.6000    0.0000 H   0  0  0  0  0  0  0  0  0  0  0  0
   -1.3856    2.4000    0.0000 O   0  0  0  0  0  0  0  0  0  0  0  0
  1  2  1  0  0  0  0
  2  3  1  0  0  0  0
  3  4  1  0  0  0  0
  3  5  1  0  0  0  0
  3  6  1  0  0  0  0
  2  7  1  0  0  0  0
  7  8  1  0  0  0  0
  7  9  1  0  0  0  0
  7 10  1  0  0  0  0
  2 11  1  0  0  0  0
 11 12  1  0  0  0  0
  1 13  1  0  0  0  0
 13 14  1  0  0  0  0
 14 15  1  0  0  0  0
 14 16  1  0  0  0  0
 14 17  1  0  0  0  0
 17 18  1  0  0  0  0
 17 19  1  0  0  0  0
 17 20  1  0  0  0  0
  1 21  2  0  0  0  0
M  END
> <ChemID>
100285

> <source_casrn>
80-55-7

> <CAS>
80-55-7

> <SMILES>
CCOC(=O)C(C)(C)O

> <NAME>
PROPANOIC ACID, 2-HYDROXY-2-METHYL-, ETHYL ESTER

> <preferred_name>
Propanoic acid, 2-hydroxy-2-methyl-, ethyl ester

> <iupac>
Ethyl 2-hydroxy-2-methylpropanoate

> <MPID>
19366

> <dsstox_substance_id>
DTXSID4073885

> <Canonical_QSARr>
CCOC(=O)C(C)(C)O

> <InChI_Code_QSARr>
InChI=1S/C6H12O3/c1-4-9-5(7)6(2,3)8/h8H,4H2,1-3H3

> <InChI Key_QSARr>
GFUIDHWFLMPAGY-UHFFFAOYSA-N

> <Salt_Solvent>
?

> <BP>
150.0

$$$$
100289
  -INDIGO-08031720192D

 18 18  0  0  0  0  0  0  0  0999 V2000
    1.0530    2.3650    0.0000 C   0  0  0  0  0  0  0  0  0  0  0  0
    2.2420    1.2944    0.0000 N   0  0  0  0  0  0  0  0  0  0  0  0
    3.8071    1.6271    0.0000 C   0  0  0  0  0  0  0  0  0  0  0  0
    5.3721    1.9597    0.0000 H   0  0  0  0  0  0  0  0  0  0  0  0
    4.3015    3.1488    0.0000 H   0  0  0  0  0  0  0  0  0  0  0  0
    4.8777    0.4380    0.0000 H   0  0  0  0  0  0  0  0  0  0  0  0
    1.5912   -0.1672    0.0000 C   0  0  0  0  0  0  0  0  0  0  0  0
    3.1129   -0.6617    0.0000 H   0  0  0  0  0  0  0  0  0  0  0  0
    1.2586   -1.7323    0.0000 H   0  0  0  0  0  0  0  0  0  0  0  0
   -0.0000    0.0000    0.0000 C   0  0  0  0  0  0  0  0  0  0  0  0
   -0.0000   -1.6000    0.0000 H   0  0  0  0  0  0  0  0  0  0  0  0
   -1.5912   -0.1672    0.0000 H   0  0  0  0  0  0  0  0  0  0  0  0
   -0.3327    1.5651    0.0000 N   0  0  0  0  0  0  0  0  0  0  0  0
   -1.7944    2.2158    0.0000 C   0  0  0  0  0  0  0  0  0  0  0  0
   -3.2560    2.8666    0.0000 H   0  0  0  0  0  0  0  0  0  0  0  0
   -1.9616    3.8071    0.0000 H   0  0  0  0  0  0  0  0  0  0  0  0
   -3.0888    1.2754    0.0000 H   0  0  0  0  0  0  0  0  0  0  0  0
    1.2202    3.9563    0.0000 O   0  0  0  0  0  0  0  0  0  0  0  0
  1  2  1  0  0  0  0
  2  3  1  0  0  0  0
  3  4  1  0  0  0  0
  3  5  1  0  0  0  0
  3  6  1  0  0  0  0
  2  7  1  0  0  0  0
  7  8  1  0  0  0  0
  7  9  1  0  0  0  0
  7 10  1  0  0  0  0
 10 11  1  0  0  0  0
 10 12  1  0  0  0  0
 10 13  1  0  0  0  0
 13  1  1  0  0  0  0
 13 14  1  0  0  0  0
 14 15  1  0  0  0  0
 14 16  1  0  0  0  0
 14 17  1  0  0  0  0
  1 18  2  0  0  0  0
M  END
> <ChemID>
100289

> <source_casrn>
80-73-9

> <CAS>
80-73-9

> <SMILES>
CN1CCN(C)C1=O

> <NAME>
1,3-Dimethyl-2-imidazolidinone

> <preferred_name>
N,N'-Dimethylimidazolidinone

> <iupac>
1,3-Dimethylimidazolidin-2-one

> <MPID>
19370

> <dsstox_substance_id>
DTXSID1073153

> <Canonical_QSARr>
CN1CCN(C)C1=O

> <InChI_Code_QSARr>
InChI=1S/C5H10N2O/c1-6-3-4-7(2)5(6)8/h3-4H2,1-2H3

> <InChI Key_QSARr>
CYSGHNMQYZDMIA-UHFFFAOYSA-N

> <Salt_Solvent>
?

> <BP>
221.0

$$$$
100293
  -INDIGO-08031720192D

 22 24  0  0  0  0  0  0  0  0999 V2000
    2.4000    1.3856    0.0000 C   0  0  0  0  0  0  0  0  0  0  0  0
    3.2001    2.7713    0.0000 H   0  0  0  0  0  0  0  0  0  0  0  0
    3.2001    0.0000    0.0000 C   0  0  0  0  0  0  0  0  0  0  0  0
    4.8000    0.0000    0.0000 H   0  0  0  0  0  0  0  0  0  0  0  0
    2.4000   -1.3857    0.0000 C   0  0  0  0  0  0  0  0  0  0  0  0
    3.2001   -2.7712    0.0000 H   0  0  0  0  0  0  0  0  0  0  0  0
    0.8000   -1.3857    0.0000 C   0  0  0  0  0  0  0  0  0  0  0  0
    0.0000   -2.7712    0.0000 C   0  0  0  0  0  0  0  0  0  0  0  0
    0.8000   -4.1569    0.0000 H   0  0  0  0  0  0  0  0  0  0  0  0
   -1.6000   -2.7712    0.0000 C   0  0  0  0  0  0  0  0  0  0  0  0
   -2.4001   -4.1569    0.0000 H   0  0  0  0  0  0  0  0  0  0  0  0
   -2.4001   -1.3857    0.0000 C   0  0  0  0  0  0  0  0  0  0  0  0
   -4.0000   -1.3857    0.0000 H   0  0  0  0  0  0  0  0  0  0  0  0
   -1.6000    0.0000    0.0000 C   0  0  0  0  0  0  0  0  0  0  0  0
    0.0000    0.0000    0.0000 C   0  0  0  0  0  0  0  0  0  0  0  0
    0.8000    1.3856    0.0000 C   0  0  0  0  0  0  0  0  0  0  0  0
   -0.4517    2.3823    0.0000 C   0  0  0  0  0  0  0  0  0  0  0  0
   -1.4181    3.6575    0.0000 H   0  0  0  0  0  0  0  0  0  0  0  0
    0.6932    3.5001    0.0000 H   0  0  0  0  0  0  0  0  0  0  0  0
   -1.8373    1.5823    0.0000 C   0  0  0  0  0  0  0  0  0  0  0  0
   -3.3777    1.1497    0.0000 H   0  0  0  0  0  0  0  0  0  0  0  0
   -2.4585    3.0569    0.0000 H   0  0  0  0  0  0  0  0  0  0  0  0
  1  2  1  0  0  0  0
  1  3  1  0  0  0  0
  3  4  1  0  0  0  0
  3  5  2  0  0  0  0
  5  6  1  0  0  0  0
  5  7  1  0  0  0  0
  7  8  2  0  0  0  0
  8  9  1  0  0  0  0
  8 10  1  0  0  0  0
 10 11  1  0  0  0  0
 10 12  2  0  0  0  0
 12 13  1  0  0  0  0
 12 14  1  0  0  0  0
 14 15  2  0  0  0  0
 15  7  1  0  0  0  0
 15 16  1  0  0  0  0
 16  1  2  0  0  0  0
 16 17  1  0  0  0  0
 17 18  1  0  0  0  0
 17 19  1  0  0  0  0
 17 20  1  0  0  0  0
 20 14  1  0  0  0  0
 20 21  1  0  0  0  0
 20 22  1  0  0  0  0
M  END
> <ChemID>
100293

> <source_casrn>
83-32-9

> <CAS>
83-32-9

> <SMILES>
C1Cc2cccc3cccc1c23

> <NAME>
ACENAPHTHENE

> <preferred_name>
Acenaphthene

> <iupac>
1,2-dihydroacenaphthylene

> <MPID>
19374

> <dsstox_substance_id>
DTXSID3021774

> <Canonical_QSARr>
C1Cc2cccc3cccc1c23

> <InChI_Code_QSARr>
InChI=1S/C12H10/c1-3-9-4-2-6-11-8-7-10(5-1)12(9)11/h1-6H,7-8H2

> <InChI Key_QSARr>
CWRYPZZKDGJXCA-UHFFFAOYSA-N

> <Salt_Solvent>
?

> <BP>
279.0

$$$$
100297
  -INDIGO-08031720192D

 17 17  0  0  0  0  0  0  0  0999 V2000
    1.3856    0.8000    0.0000 C   0  0  0  0  0  0  0  0  0  0  0  0
    2.7713   -0.0000    0.0000 C   0  0  0  0  0  0  0  0  0  0  0  0
    4.1569    0.8000    0.0000 H   0  0  0  0  0  0  0  0  0  0  0  0
    2.7713   -1.6000    0.0000 C   0  0  0  0  0  0  0  0  0  0  0  0
    4.1569   -2.4000    0.0000 H   0  0  0  0  0  0  0  0  0  0  0  0
    1.3856   -2.4000    0.0000 C   0  0  0  0  0  0  0  0  0  0  0  0
    1.3856   -4.0000    0.0000 H   0  0  0  0  0  0  0  0  0  0  0  0
    0.0000   -1.6000    0.0000 C   0  0  0  0  0  0  0  0  0  0  0  0
   -1.3856   -2.4000    0.0000 N   0  0  0  0  0  0  0  0  0  0  0  0
   -1.3856   -4.0000    0.0000 O   0  0  0  0  0  0  0  0  0  0  0  0
   -2.7713   -1.6000    0.0000 O   0  0  0  0  0  0  0  0  0  0  0  0
    0.0000   -0.0000    0.0000 C   0  0  0  0  0  0  0  0  0  0  0  0
   -1.3856    0.8000    0.0000 C   0  0  0  0  0  0  0  0  0  0  0  0
   -2.7713    1.6000    0.0000 H   0  0  0  0  0  0  0  0  0  0  0  0
   -1.3856    2.4000    0.0000 H   0  0  0  0  0  0  0  0  0  0  0  0
   -2.7713   -0.0000    0.0000 H   0  0  0  0  0  0  0  0  0  0  0  0
    1.3856    2.4000    0.0000 Cl  0  0  0  0  0  0  0  0  0  0  0  0
  1  2  1  0  0  0  0
  2  3  1  0  0  0  0
  2  4  2  0  0  0  0
  4  5  1  0  0  0  0
  4  6  1  0  0  0  0
  6  7  1  0  0  0  0
  6  8  2  0  0  0  0
  8  9  1  0  0  0  0
  9 10  1  0  0  0  0
  9 11  2  0  0  0  0
  8 12  1  0  0  0  0
 12  1  2  0  0  0  0
 12 13  1  0  0  0  0
 13 14  1  0  0  0  0
 13 15  1  0  0  0  0
 13 16  1  0  0  0  0
  1 17  1  0  0  0  0
M  CHG  2   9   1  10  -1
M  END
> <ChemID>
100297

> <source_casrn>
83-42-1

> <CAS>
83-42-1

> <SMILES>
Cc1c(Cl)cccc1[N+]([O-])=O

> <NAME>
BENZENE, 1-CHLORO-2-METHYL-3-NITRO-

> <preferred_name>
1-Chloro-2-methyl-3-nitrobenzene

> <iupac>
1-chloro-2-methyl-3-nitrobenzene

> <MPID>
19378

> <dsstox_substance_id>
DTXSID1041263

> <Canonical_QSARr>
Cc1c(Cl)cccc1[N+]([O-])=O

> <InChI_Code_QSARr>
InChI=1S/C7H6ClNO2/c1-5-6(8)3-2-4-7(5)9(10)11/h2-4H,1H3

> <InChI Key_QSARr>
XCSNRORTQRKCHB-UHFFFAOYSA-N

> <Salt_Solvent>
?

> <BP>
238.0

$$$$
100301
  -INDIGO-08031720192D

 24 26  0  0  0  0  0  0  0  0999 V2000
   -1.3856    2.4000    0.0000 O   0  0  0  0  0  0  0  0  0  0  0  0
   -1.3856    0.8000    0.0000 C   0  0  0  0  0  0  0  0  0  0  0  0
   -2.7712   -0.0000    0.0000 C   0  0  0  0  0  0  0  0  0  0  0  0
   -2.7712   -1.6000    0.0000 C   0  0  0  0  0  0  0  0  0  0  0  0
   -4.1569   -2.4000    0.0000 C   0  0  0  0  0  0  0  0  0  0  0  0
   -4.1569   -4.0000    0.0000 H   0  0  0  0  0  0  0  0  0  0  0  0
   -5.5425   -1.6000    0.0000 C   0  0  0  0  0  0  0  0  0  0  0  0
   -6.9282   -2.4000    0.0000 H   0  0  0  0  0  0  0  0  0  0  0  0
   -5.5425   -0.0000    0.0000 C   0  0  0  0  0  0  0  0  0  0  0  0
   -6.9282    0.8000    0.0000 H   0  0  0  0  0  0  0  0  0  0  0  0
   -4.1569    0.8000    0.0000 C   0  0  0  0  0  0  0  0  0  0  0  0
   -4.1569    2.4000    0.0000 H   0  0  0  0  0  0  0  0  0  0  0  0
   -1.3856   -2.4000    0.0000 C   0  0  0  0  0  0  0  0  0  0  0  0
   -1.3856   -4.0000    0.0000 O   0  0  0  0  0  0  0  0  0  0  0  0
   -0.0001   -1.6000    0.0000 C   0  0  0  0  0  0  0  0  0  0  0  0
   -0.0001   -0.0000    0.0000 C   0  0  0  0  0  0  0  0  0  0  0  0
    1.3856    0.8000    0.0000 C   0  0  0  0  0  0  0  0  0  0  0  0
    1.3856    2.4000    0.0000 H   0  0  0  0  0  0  0  0  0  0  0  0
    2.7713   -0.0000    0.0000 C   0  0  0  0  0  0  0  0  0  0  0  0
    4.1569    0.8000    0.0000 H   0  0  0  0  0  0  0  0  0  0  0  0
    2.7713   -1.6000    0.0000 C   0  0  0  0  0  0  0  0  0  0  0  0
    4.1569   -2.4000    0.0000 H   0  0  0  0  0  0  0  0  0  0  0  0
    1.3856   -2.4000    0.0000 C   0  0  0  0  0  0  0  0  0  0  0  0
    1.3856   -4.0000    0.0000 H   0  0  0  0  0  0  0  0  0  0  0  0
  1  2  2  0  0  0  0
  2  3  1  0  0  0  0
  3  4  1  0  0  0  0
  4  5  2  0  0  0  0
  5  6  1  0  0  0  0
  5  7  1  0  0  0  0
  7  8  1  0  0  0  0
  7  9  2  0  0  0  0
  9 10  1  0  0  0  0
  9 11  1  0  0  0  0
 11  3  2  0  0  0  0
 11 12  1  0  0  0  0
  4 13  1  0  0  0  0
 13 14  2  0  0  0  0
 13 15  1  0  0  0  0
 15 16  1  0  0  0  0
 16  2  1  0  0  0  0
 16 17  2  0  0  0  0
 17 18  1  0  0  0  0
 17 19  1  0  0  0  0
 19 20  1  0  0  0  0
 19 21  2  0  0  0  0
 21 22  1  0  0  0  0
 21 23  1  0  0  0  0
 23 15  2  0  0  0  0
 23 24  1  0  0  0  0
M  END
> <ChemID>
100301

> <source_casrn>
84-65-1

> <CAS>
84-65-1

> <SMILES>
O=C1c2ccccc2C(=O)c2ccccc12

> <NAME>
ANTHRAQUINONE

> <preferred_name>
Anthraquinone

> <iupac>
anthracene-9,10-dione

> <MPID>
19382

> <dsstox_substance_id>
DTXSID3020095

> <Canonical_QSARr>
O=C1c2ccccc2C(=O)c2ccccc12

> <InChI_Code_QSARr>
InChI=1S/C14H8O2/c15-13-9-5-1-2-6-10(9)14(16)12-8-4-3-7-11(12)13/h1-8H

> <InChI Key_QSARr>
RZVHIXYEVGDQDX-UHFFFAOYSA-N

> <Salt_Solvent>
?

> <BP>
377.0

$$$$
100305
  -INDIGO-08031720192D

 32 33  0  0  0  0  0  0  0  0999 V2000
    0.0000    0.0000    0.0000 N   0  0  0  0  0  0  0  0  0  0  0  0
    1.5035   -0.5472    0.0000 C   0  0  0  0  0  0  0  0  0  0  0  0
    2.8892    0.2527    0.0000 C   0  0  0  0  0  0  0  0  0  0  0  0
    4.2748   -0.5472    0.0000 C   0  0  0  0  0  0  0  0  0  0  0  0
    5.6605    0.2527    0.0000 C   0  0  0  0  0  0  0  0  0  0  0  0
    7.0461   -0.5472    0.0000 H   0  0  0  0  0  0  0  0  0  0  0  0
    5.6605    1.8528    0.0000 C   0  0  0  0  0  0  0  0  0  0  0  0
    7.0461    2.6528    0.0000 H   0  0  0  0  0  0  0  0  0  0  0  0
    4.2748    2.6528    0.0000 C   0  0  0  0  0  0  0  0  0  0  0  0
    4.2748    4.2528    0.0000 H   0  0  0  0  0  0  0  0  0  0  0  0
    2.8892    1.8528    0.0000 C   0  0  0  0  0  0  0  0  0  0  0  0
    1.6635    2.8812    0.0000 H   0  0  0  0  0  0  0  0  0  0  0  0
    4.2748   -2.1473    0.0000 C   0  0  0  0  0  0  0  0  0  0  0  0
    5.6605   -2.9473    0.0000 H   0  0  0  0  0  0  0  0  0  0  0  0
    2.8892   -2.9473    0.0000 C   0  0  0  0  0  0  0  0  0  0  0  0
    2.8892   -4.5472    0.0000 H   0  0  0  0  0  0  0  0  0  0  0  0
    1.5035   -2.1473    0.0000 C   0  0  0  0  0  0  0  0  0  0  0  0
    0.1179   -2.9473    0.0000 H   0  0  0  0  0  0  0  0  0  0  0  0
   -0.5473    1.5035    0.0000 C   0  0  0  0  0  0  0  0  0  0  0  0
   -0.0661    3.0295    0.0000 H   0  0  0  0  0  0  0  0  0  0  0  0
    0.8719    2.2423    0.0000 H   0  0  0  0  0  0  0  0  0  0  0  0
   -2.1229    1.7814    0.0000 C   0  0  0  0  0  0  0  0  0  0  0  0
   -2.6701    3.2849    0.0000 H   0  0  0  0  0  0  0  0  0  0  0  0
   -3.6986    2.0592    0.0000 H   0  0  0  0  0  0  0  0  0  0  0  0
   -1.0945    3.0071    0.0000 H   0  0  0  0  0  0  0  0  0  0  0  0
   -1.2257   -1.0284    0.0000 C   0  0  0  0  0  0  0  0  0  0  0  0
   -2.4054    0.0525    0.0000 H   0  0  0  0  0  0  0  0  0  0  0  0
   -2.8241   -1.0983    0.0000 H   0  0  0  0  0  0  0  0  0  0  0  0
   -0.9478   -2.6042    0.0000 C   0  0  0  0  0  0  0  0  0  0  0  0
   -2.1735   -3.6327    0.0000 H   0  0  0  0  0  0  0  0  0  0  0  0
   -0.6701   -4.1798    0.0000 H   0  0  0  0  0  0  0  0  0  0  0  0
   -2.4513   -2.0569    0.0000 H   0  0  0  0  0  0  0  0  0  0  0  0
  1  2  1  0  0  0  0
  2  3  1  0  0  0  0
  3  4  1  0  0  0  0
  4  5  2  0  0  0  0
  5  6  1  0  0  0  0
  5  7  1  0  0  0  0
  7  8  1  0  0  0  0
  7  9  2  0  0  0  0
  9 10  1  0  0  0  0
  9 11  1  0  0  0  0
 11  3  2  0  0  0  0
 11 12  1  0  0  0  0
  4 13  1  0  0  0  0
 13 14  1  0  0  0  0
 13 15  2  0  0  0  0
 15 16  1  0  0  0  0
 15 17  1  0  0  0  0
 17  2  2  0  0  0  0
 17 18  1  0  0  0  0
  1 19  1  0  0  0  0
 19 20  1  0  0  0  0
 19 21  1  0  0  0  0
 19 22  1  0  0  0  0
 22 23  1  0  0  0  0
 22 24  1  0  0  0  0
 22 25  1  0  0  0  0
  1 26  1  0  0  0  0
 26 27  1  0  0  0  0
 26 28  1  0  0  0  0
 26 29  1  0  0  0  0
 29 30  1  0  0  0  0
 29 31  1  0  0  0  0
 29 32  1  0  0  0  0
M  END
> <ChemID>
100305

> <source_casrn>
84-95-7

> <CAS>
84-95-7

> <SMILES>
CCN(CC)c1cccc2ccccc21

> <NAME>
1-Naphthalenamine, N,N-diethyl-

> <preferred_name>
1-Naphthalenamine, N,N-diethyl-

> <iupac>
N,N-diethylnaphthalen-1-amine

> <MPID>
19386

> <dsstox_substance_id>
DTXSID7058915

> <Canonical_QSARr>
CCN(CC)c1cccc2ccccc21

> <InChI_Code_QSARr>
InChI=1S/C14H17N/c1-3-15(4-2)14-11-7-9-12-8-5-6-10-13(12)14/h5-11H,3-4H2,1-2H3

> <InChI Key_QSARr>
XLEMRIJDZGESRG-UHFFFAOYSA-N

> <Salt_Solvent>
?

> <BP>
285.0

$$$$
100309
  -INDIGO-08031720192D

 27 28  0  0  0  0  0  0  0  0999 V2000
    0.0001    0.0000    0.0000 C   0  0  0  0  0  0  0  0  0  0  0  0
    1.3857    0.8000    0.0000 C   0  0  0  0  0  0  0  0  0  0  0  0
    1.3857    2.4000    0.0000 C   0  0  0  0  0  0  0  0  0  0  0  0
    2.7713    3.2001    0.0000 O   0  0  0  0  0  0  0  0  0  0  0  0
    2.7713    4.8000    0.0000 H   0  0  0  0  0  0  0  0  0  0  0  0
    0.0001    3.2001    0.0000 O   0  0  0  0  0  0  0  0  0  0  0  0
    2.7713    0.0000    0.0000 C   0  0  0  0  0  0  0  0  0  0  0  0
    4.1569    0.8000    0.0000 H   0  0  0  0  0  0  0  0  0  0  0  0
    2.7713   -1.6000    0.0000 C   0  0  0  0  0  0  0  0  0  0  0  0
    4.1569   -2.4001    0.0000 H   0  0  0  0  0  0  0  0  0  0  0  0
    1.3857   -2.4001    0.0000 C   0  0  0  0  0  0  0  0  0  0  0  0
    1.3857   -4.0000    0.0000 H   0  0  0  0  0  0  0  0  0  0  0  0
    0.0001   -1.6000    0.0000 C   0  0  0  0  0  0  0  0  0  0  0  0
   -1.3857   -2.4001    0.0000 H   0  0  0  0  0  0  0  0  0  0  0  0
   -1.3857    0.8000    0.0000 C   0  0  0  0  0  0  0  0  0  0  0  0
   -2.9613    0.5221    0.0000 C   0  0  0  0  0  0  0  0  0  0  0  0
   -3.5086   -0.9814    0.0000 C   0  0  0  0  0  0  0  0  0  0  0  0
   -2.4802   -2.2070    0.0000 H   0  0  0  0  0  0  0  0  0  0  0  0
   -5.0842   -1.2592    0.0000 C   0  0  0  0  0  0  0  0  0  0  0  0
   -5.6315   -2.7627    0.0000 H   0  0  0  0  0  0  0  0  0  0  0  0
   -6.1126   -0.0335    0.0000 C   0  0  0  0  0  0  0  0  0  0  0  0
   -7.6884   -0.3113    0.0000 H   0  0  0  0  0  0  0  0  0  0  0  0
   -5.5655    1.4700    0.0000 C   0  0  0  0  0  0  0  0  0  0  0  0
   -6.5940    2.6957    0.0000 H   0  0  0  0  0  0  0  0  0  0  0  0
   -3.9898    1.7478    0.0000 C   0  0  0  0  0  0  0  0  0  0  0  0
   -3.4426    3.2514    0.0000 H   0  0  0  0  0  0  0  0  0  0  0  0
   -1.3857    2.4000    0.0000 O   0  0  0  0  0  0  0  0  0  0  0  0
  1  2  1  0  0  0  0
  2  3  1  0  0  0  0
  3  4  1  0  0  0  0
  4  5  1  0  0  0  0
  3  6  2  0  0  0  0
  2  7  2  0  0  0  0
  7  8  1  0  0  0  0
  7  9  1  0  0  0  0
  9 10  1  0  0  0  0
  9 11  2  0  0  0  0
 11 12  1  0  0  0  0
 11 13  1  0  0  0  0
 13  1  2  0  0  0  0
 13 14  1  0  0  0  0
  1 15  1  0  0  0  0
 15 16  1  0  0  0  0
 16 17  1  0  0  0  0
 17 18  1  0  0  0  0
 17 19  2  0  0  0  0
 19 20  1  0  0  0  0
 19 21  1  0  0  0  0
 21 22  1  0  0  0  0
 21 23  2  0  0  0  0
 23 24  1  0  0  0  0
 23 25  1  0  0  0  0
 25 16  2  0  0  0  0
 25 26  1  0  0  0  0
 15 27  2  0  0  0  0
M  END
> <ChemID>
100309

> <source_casrn>
85-52-9

> <CAS>
85-52-9

> <SMILES>
OC(=O)c1ccccc1C(=O)c1ccccc1

> <NAME>
2-Benzoylbenzoic acid

> <preferred_name>
Benzoic acid, 2-benzoyl-

> <iupac>
2-(benzoyl)benzoic acid

> <MPID>
19390

> <dsstox_substance_id>
DTXSID6058924

> <Canonical_QSARr>
OC(=O)c1ccccc1C(=O)c1ccccc1

> <InChI_Code_QSARr>
InChI=1S/C14H10O3/c15-13(10-6-2-1-3-7-10)11-8-4-5-9-12(11)14(16)17/h1-9H,(H,16,17)

> <InChI Key_QSARr>
FGTYTUFKXYPTML-UHFFFAOYSA-N

> <Salt_Solvent>
?

> <BP>
261.0

$$$$
100313
  -INDIGO-08031720192D

 26 27  0  0  0  0  0  0  0  0999 V2000
   -2.4001    1.3857    0.0000 C   0  0  0  0  0  0  0  0  0  0  0  0
   -1.6001    2.7713    0.0000 H   0  0  0  0  0  0  0  0  0  0  0  0
   -1.6001    0.0000    0.0000 C   0  0  0  0  0  0  0  0  0  0  0  0
    0.0001    0.0000    0.0000 C   0  0  0  0  0  0  0  0  0  0  0  0
    0.8001    1.3857    0.0000 C   0  0  0  0  0  0  0  0  0  0  0  0
    0.0001    2.7713    0.0000 O   0  0  0  0  0  0  0  0  0  0  0  0
    0.8001    4.1570    0.0000 C   0  0  0  0  0  0  0  0  0  0  0  0
    1.6000    5.5426    0.0000 H   0  0  0  0  0  0  0  0  0  0  0  0
    0.0001    5.5426    0.0000 H   0  0  0  0  0  0  0  0  0  0  0  0
    2.4000    4.1570    0.0000 H   0  0  0  0  0  0  0  0  0  0  0  0
    2.4000    1.3857    0.0000 C   0  0  0  0  0  0  0  0  0  0  0  0
    3.2000    2.7713    0.0000 H   0  0  0  0  0  0  0  0  0  0  0  0
    3.2000    0.0000    0.0000 C   0  0  0  0  0  0  0  0  0  0  0  0
    4.8000    0.0000    0.0000 H   0  0  0  0  0  0  0  0  0  0  0  0
    2.4000   -1.3856    0.0000 C   0  0  0  0  0  0  0  0  0  0  0  0
    3.2000   -2.7713    0.0000 H   0  0  0  0  0  0  0  0  0  0  0  0
    0.8001   -1.3856    0.0000 C   0  0  0  0  0  0  0  0  0  0  0  0
    0.0001   -2.7713    0.0000 H   0  0  0  0  0  0  0  0  0  0  0  0
   -2.4001   -1.3857    0.0000 C   0  0  0  0  0  0  0  0  0  0  0  0
   -1.6001   -2.7713    0.0000 H   0  0  0  0  0  0  0  0  0  0  0  0
   -4.0000   -1.3857    0.0000 C   0  0  0  0  0  0  0  0  0  0  0  0
   -4.8000   -2.7713    0.0000 H   0  0  0  0  0  0  0  0  0  0  0  0
   -4.8000    0.0000    0.0000 C   0  0  0  0  0  0  0  0  0  0  0  0
   -6.4000    0.0000    0.0000 H   0  0  0  0  0  0  0  0  0  0  0  0
   -4.0000    1.3856    0.0000 C   0  0  0  0  0  0  0  0  0  0  0  0
   -4.8000    2.7713    0.0000 H   0  0  0  0  0  0  0  0  0  0  0  0
  1  2  1  0  0  0  0
  1  3  1  0  0  0  0
  3  4  1  0  0  0  0
  4  5  1  0  0  0  0
  5  6  1  0  0  0  0
  6  7  1  0  0  0  0
  7  8  1  0  0  0  0
  7  9  1  0  0  0  0
  7 10  1  0  0  0  0
  5 11  2  0  0  0  0
 11 12  1  0  0  0  0
 11 13  1  0  0  0  0
 13 14  1  0  0  0  0
 13 15  2  0  0  0  0
 15 16  1  0  0  0  0
 15 17  1  0  0  0  0
 17  4  2  0  0  0  0
 17 18  1  0  0  0  0
  3 19  2  0  0  0  0
 19 20  1  0  0  0  0
 19 21  1  0  0  0  0
 21 22  1  0  0  0  0
 21 23  2  0  0  0  0
 23 24  1  0  0  0  0
 23 25  1  0  0  0  0
 25  1  2  0  0  0  0
 25 26  1  0  0  0  0
M  END
> <ChemID>
100313

> <source_casrn>
86-26-0

> <CAS>
86-26-0

> <SMILES>
COc1ccccc1-c1ccccc1

> <NAME>
1,1'-Biphenyl, 2-methoxy-

> <preferred_name>
Biphenyl-2-yl methyl ether

> <iupac>
biphenyl-2-yl methyl ether

> <MPID>
19394

> <dsstox_substance_id>
DTXSID6052584

> <Canonical_QSARr>
COc1ccccc1-c1ccccc1

> <InChI_Code_QSARr>
InChI=1S/C13H12O/c1-14-13-10-6-5-9-12(13)11-7-3-2-4-8-11/h2-10H,1H3

> <InChI Key_QSARr>
NLWCWEGVNJVLAX-UHFFFAOYSA-N

> <Salt_Solvent>
?

> <BP>
274.0

$$$$
100318
  -INDIGO-08031720192D

 20 21  0  0  0  0  0  0  0  0999 V2000
   -1.6000    2.7713    0.0000 O   0  0  0  0  0  0  0  0  0  0  0  0
   -2.4001    1.3856    0.0000 N   0  0  0  0  0  0  0  0  0  0  0  0
   -1.6000    0.0000    0.0000 C   0  0  0  0  0  0  0  0  0  0  0  0
    0.0000    0.0000    0.0000 C   0  0  0  0  0  0  0  0  0  0  0  0
    0.8000   -1.3856    0.0000 C   0  0  0  0  0  0  0  0  0  0  0  0
    2.4000   -1.3856    0.0000 C   0  0  0  0  0  0  0  0  0  0  0  0
    3.2001   -2.7713    0.0000 H   0  0  0  0  0  0  0  0  0  0  0  0
    3.2001    0.0000    0.0000 C   0  0  0  0  0  0  0  0  0  0  0  0
    4.8000    0.0000    0.0000 H   0  0  0  0  0  0  0  0  0  0  0  0
    2.4000    1.3856    0.0000 C   0  0  0  0  0  0  0  0  0  0  0  0
    3.2001    2.7713    0.0000 H   0  0  0  0  0  0  0  0  0  0  0  0
    0.8000    1.3856    0.0000 C   0  0  0  0  0  0  0  0  0  0  0  0
    0.0000    2.7713    0.0000 H   0  0  0  0  0  0  0  0  0  0  0  0
    0.0000   -2.7713    0.0000 C   0  0  0  0  0  0  0  0  0  0  0  0
    0.8000   -4.1569    0.0000 H   0  0  0  0  0  0  0  0  0  0  0  0
   -1.6000   -2.7713    0.0000 C   0  0  0  0  0  0  0  0  0  0  0  0
   -2.4001   -4.1569    0.0000 H   0  0  0  0  0  0  0  0  0  0  0  0
   -2.4001   -1.3856    0.0000 C   0  0  0  0  0  0  0  0  0  0  0  0
   -4.0000   -1.3856    0.0000 H   0  0  0  0  0  0  0  0  0  0  0  0
   -4.0000    1.3856    0.0000 O   0  0  0  0  0  0  0  0  0  0  0  0
  1  2  2  0  0  0  0
  2  3  1  0  0  0  0
  3  4  1  0  0  0  0
  4  5  1  0  0  0  0
  5  6  2  0  0  0  0
  6  7  1  0  0  0  0
  6  8  1  0  0  0  0
  8  9  1  0  0  0  0
  8 10  2  0  0  0  0
 10 11  1  0  0  0  0
 10 12  1  0  0  0  0
 12  4  2  0  0  0  0
 12 13  1  0  0  0  0
  5 14  1  0  0  0  0
 14 15  1  0  0  0  0
 14 16  2  0  0  0  0
 16 17  1  0  0  0  0
 16 18  1  0  0  0  0
 18  3  2  0  0  0  0
 18 19  1  0  0  0  0
  2 20  1  0  0  0  0
M  CHG  2   2   1  20  -1
M  END
> <ChemID>
100318

> <source_casrn>
86-57-7

> <CAS>
86-57-7

> <SMILES>
[O-][N+](=O)c1cccc2ccccc21

> <NAME>
1-NITRONAPHTHALENE

> <preferred_name>
1-Nitronaphthalene

> <iupac>
1-nitronaphthalene

> <MPID>
19398

> <dsstox_substance_id>
DTXSID7020978

> <Canonical_QSARr>
[O-][N+](=O)c1cccc2ccccc21

> <InChI_Code_QSARr>
InChI=1S/C10H7NO2/c12-11(13)10-7-3-5-8-4-1-2-6-9(8)10/h1-7H

> <InChI Key_QSARr>
RJKGJBPXVHTNJL-UHFFFAOYSA-N

> <Salt_Solvent>
?

> <BP>
304.0

$$$$
100322
  -INDIGO-08031720192D

 28 28  0  0  0  0  0  0  0  0999 V2000
    4.1570    0.8000    0.0000 C   0  0  0  0  0  0  0  0  0  0  0  0
    4.1570    2.4000    0.0000 O   0  0  0  0  0  0  0  0  0  0  0  0
    5.5426   -0.0000    0.0000 C   0  0  0  0  0  0  0  0  0  0  0  0
    5.5426   -1.6000    0.0000 C   0  0  0  0  0  0  0  0  0  0  0  0
    4.1570   -2.4000    0.0000 H   0  0  0  0  0  0  0  0  0  0  0  0
    6.9281   -2.4000    0.0000 C   0  0  0  0  0  0  0  0  0  0  0  0
    6.9281   -4.0000    0.0000 H   0  0  0  0  0  0  0  0  0  0  0  0
    8.3139   -1.6000    0.0000 C   0  0  0  0  0  0  0  0  0  0  0  0
    9.6995   -2.4000    0.0000 H   0  0  0  0  0  0  0  0  0  0  0  0
    8.3139   -0.0000    0.0000 C   0  0  0  0  0  0  0  0  0  0  0  0
    9.6995    0.8000    0.0000 H   0  0  0  0  0  0  0  0  0  0  0  0
    6.9281    0.8000    0.0000 C   0  0  0  0  0  0  0  0  0  0  0  0
    6.9281    2.4000    0.0000 O   0  0  0  0  0  0  0  0  0  0  0  0
    8.3139    3.2000    0.0000 H   0  0  0  0  0  0  0  0  0  0  0  0
    2.7712   -0.0000    0.0000 O   0  0  0  0  0  0  0  0  0  0  0  0
    1.3856    0.8000    0.0000 C   0  0  0  0  0  0  0  0  0  0  0  0
    0.7733    2.2782    0.0000 H   0  0  0  0  0  0  0  0  0  0  0  0
    1.9980    2.2782    0.0000 H   0  0  0  0  0  0  0  0  0  0  0  0
    0.0001   -0.0000    0.0000 C   0  0  0  0  0  0  0  0  0  0  0  0
    1.0285   -1.2257    0.0000 H   0  0  0  0  0  0  0  0  0  0  0  0
   -1.2256   -1.0285    0.0000 C   0  0  0  0  0  0  0  0  0  0  0  0
   -2.4513   -2.0569    0.0000 H   0  0  0  0  0  0  0  0  0  0  0  0
   -2.7292   -0.4812    0.0000 H   0  0  0  0  0  0  0  0  0  0  0  0
   -0.9478   -2.6042    0.0000 H   0  0  0  0  0  0  0  0  0  0  0  0
   -1.0284    1.2256    0.0000 C   0  0  0  0  0  0  0  0  0  0  0  0
   -2.0569    2.4514    0.0000 H   0  0  0  0  0  0  0  0  0  0  0  0
   -0.4813    2.7292    0.0000 H   0  0  0  0  0  0  0  0  0  0  0  0
   -2.6042    0.9479    0.0000 H   0  0  0  0  0  0  0  0  0  0  0  0
  1  2  2  0  0  0  0
  1  3  1  0  0  0  0
  3  4  1  0  0  0  0
  4  5  1  0  0  0  0
  4  6  2  0  0  0  0
  6  7  1  0  0  0  0
  6  8  1  0  0  0  0
  8  9  1  0  0  0  0
  8 10  2  0  0  0  0
 10 11  1  0  0  0  0
 10 12  1  0  0  0  0
 12  3  2  0  0  0  0
 12 13  1  0  0  0  0
 13 14  1  0  0  0  0
  1 15  1  0  0  0  0
 15 16  1  0  0  0  0
 16 17  1  0  0  0  0
 16 18  1  0  0  0  0
 16 19  1  0  0  0  0
 19 20  1  0  0  0  0
 19 21  1  0  0  0  0
 21 22  1  0  0  0  0
 21 23  1  0  0  0  0
 21 24  1  0  0  0  0
 19 25  1  0  0  0  0
 25 26  1  0  0  0  0
 25 27  1  0  0  0  0
 25 28  1  0  0  0  0
M  END
> <ChemID>
100322

> <source_casrn>
87-19-4

> <CAS>
87-19-4

> <SMILES>
CC(C)COC(=O)c1ccccc1O

> <NAME>
Benzoic acid, 2-hydroxy-, 2-methylpropyl ester

> <preferred_name>
Isobutyl salicylate

> <iupac>
2-methylpropyl 2-hydroxybenzoate

> <MPID>
19402

> <dsstox_substance_id>
DTXSID3047186

> <Canonical_QSARr>
CC(C)COC(=O)c1ccccc1O

> <InChI_Code_QSARr>
InChI=1S/C11H14O3/c1-8(2)7-14-11(13)9-5-3-4-6-10(9)12/h3-6,8,12H,7H2,1-2H3

> <InChI Key_QSARr>
PTXDBYSCVQQBNF-UHFFFAOYSA-N

> <Salt_Solvent>
?

> <BP>
261.0

$$$$
100326
  -INDIGO-08031720192D

 16 16  0  0  0  0  0  0  0  0999 V2000
    0.0001   -0.0000    0.0000 C   0  0  0  0  0  0  0  0  0  0  0  0
    0.0001   -1.6000    0.0000 C   0  0  0  0  0  0  0  0  0  0  0  0
    1.3856   -2.4000    0.0000 Cl  0  0  0  0  0  0  0  0  0  0  0  0
   -1.3856   -2.4000    0.0000 C   0  0  0  0  0  0  0  0  0  0  0  0
   -1.3856   -4.0000    0.0000 H   0  0  0  0  0  0  0  0  0  0  0  0
   -2.7712   -1.6000    0.0000 C   0  0  0  0  0  0  0  0  0  0  0  0
   -4.1569   -2.4000    0.0000 Cl  0  0  0  0  0  0  0  0  0  0  0  0
   -2.7712   -0.0000    0.0000 C   0  0  0  0  0  0  0  0  0  0  0  0
   -4.1569    0.8000    0.0000 H   0  0  0  0  0  0  0  0  0  0  0  0
   -1.3856    0.8000    0.0000 C   0  0  0  0  0  0  0  0  0  0  0  0
   -1.3856    2.4000    0.0000 Cl  0  0  0  0  0  0  0  0  0  0  0  0
    1.3856    0.8000    0.0000 O   0  0  0  0  0  0  0  0  0  0  0  0
    2.7713   -0.0000    0.0000 C   0  0  0  0  0  0  0  0  0  0  0  0
    4.1569    0.8000    0.0000 H   0  0  0  0  0  0  0  0  0  0  0  0
    4.1569   -0.8000    0.0000 H   0  0  0  0  0  0  0  0  0  0  0  0
    2.7713    1.6000    0.0000 H   0  0  0  0  0  0  0  0  0  0  0  0
  1  2  1  0  0  0  0
  2  3  1  0  0  0  0
  2  4  2  0  0  0  0
  4  5  1  0  0  0  0
  4  6  1  0  0  0  0
  6  7  1  0  0  0  0
  6  8  2  0  0  0  0
  8  9  1  0  0  0  0
  8 10  1  0  0  0  0
 10  1  2  0  0  0  0
 10 11  1  0  0  0  0
  1 12  1  0  0  0  0
 12 13  1  0  0  0  0
 13 14  1  0  0  0  0
 13 15  1  0  0  0  0
 13 16  1  0  0  0  0
M  END
> <ChemID>
100326

> <source_casrn>
87-40-1

> <CAS>
87-40-1

> <SMILES>
COc1c(Cl)cc(Cl)cc1Cl

> <NAME>
2,4,6-TRICHLOROANISOLE

> <preferred_name>
Benzene, 1,3,5-trichloro-2-methoxy-

> <iupac>
1,3,5-Trichloro-2-methoxybenzene

> <MPID>
19406

> <dsstox_substance_id>
DTXSID9073886

> <Canonical_QSARr>
COc1c(Cl)cc(Cl)cc1Cl

> <InChI_Code_QSARr>
InChI=1S/C7H5Cl3O/c1-11-7-5(9)2-4(8)3-6(7)10/h2-3H,1H3

> <InChI Key_QSARr>
WCVOGSZTONGSQY-UHFFFAOYSA-N

> <Salt_Solvent>
?

> <BP>
241.0

$$$$
100330
  -INDIGO-08031720192D

 12 12  0  0  0  0  0  0  0  0999 V2000
    0.8000    1.3856    0.0000 Cl  0  0  0  0  0  0  0  0  0  0  0  0
   -0.0000   -0.0000    0.0000 C   0  0  0  0  0  0  0  0  0  0  0  0
    0.8000   -1.3857    0.0000 C   0  0  0  0  0  0  0  0  0  0  0  0
    2.4000   -1.3857    0.0000 Cl  0  0  0  0  0  0  0  0  0  0  0  0
   -0.0000   -2.7713    0.0000 C   0  0  0  0  0  0  0  0  0  0  0  0
    0.8000   -4.1569    0.0000 H   0  0  0  0  0  0  0  0  0  0  0  0
   -1.6000   -2.7713    0.0000 C   0  0  0  0  0  0  0  0  0  0  0  0
   -2.4000   -4.1569    0.0000 H   0  0  0  0  0  0  0  0  0  0  0  0
   -2.4000   -1.3856    0.0000 C   0  0  0  0  0  0  0  0  0  0  0  0
   -4.0000   -1.3856    0.0000 H   0  0  0  0  0  0  0  0  0  0  0  0
   -1.6000   -0.0000    0.0000 C   0  0  0  0  0  0  0  0  0  0  0  0
   -2.4000    1.3856    0.0000 Cl  0  0  0  0  0  0  0  0  0  0  0  0
  1  2  1  0  0  0  0
  2  3  1  0  0  0  0
  3  4  1  0  0  0  0
  3  5  2  0  0  0  0
  5  6  1  0  0  0  0
  5  7  1  0  0  0  0
  7  8  1  0  0  0  0
  7  9  2  0  0  0  0
  9 10  1  0  0  0  0
  9 11  1  0  0  0  0
 11  2  2  0  0  0  0
 11 12  1  0  0  0  0
M  END
> <ChemID>
100330

> <source_casrn>
87-61-6

> <CAS>
87-61-6

> <SMILES>
Clc1c(Cl)cccc1Cl

> <NAME>
1,2,3-TRICHLOROBENZENE

> <preferred_name>
1,2,3-Trichlorobenzene

> <iupac>
C6H3Cl3

> <MPID>
19410

> <dsstox_substance_id>
DTXSID8026193

> <Canonical_QSARr>
Clc1c(Cl)cccc1Cl

> <InChI_Code_QSARr>
InChI=1S/C6H3Cl3/c7-4-2-1-3-5(8)6(4)9/h1-3H

> <InChI Key_QSARr>
RELMFMZEBKVZJC-UHFFFAOYSA-N

> <Salt_Solvent>
?

> <BP>
218.5

$$$$
100334
  -INDIGO-08031720192D

 13 13  0  0  0  0  0  0  0  0999 V2000
    0.8000    1.3856    0.0000 O   0  0  0  0  0  0  0  0  0  0  0  0
    2.4000    1.3856    0.0000 H   0  0  0  0  0  0  0  0  0  0  0  0
   -0.0000   -0.0000    0.0000 C   0  0  0  0  0  0  0  0  0  0  0  0
    0.8000   -1.3857    0.0000 C   0  0  0  0  0  0  0  0  0  0  0  0
    2.4000   -1.3857    0.0000 Cl  0  0  0  0  0  0  0  0  0  0  0  0
   -0.0000   -2.7713    0.0000 C   0  0  0  0  0  0  0  0  0  0  0  0
    0.8000   -4.1569    0.0000 H   0  0  0  0  0  0  0  0  0  0  0  0
   -1.6000   -2.7713    0.0000 C   0  0  0  0  0  0  0  0  0  0  0  0
   -2.4000   -4.1569    0.0000 H   0  0  0  0  0  0  0  0  0  0  0  0
   -2.4000   -1.3856    0.0000 C   0  0  0  0  0  0  0  0  0  0  0  0
   -4.0000   -1.3856    0.0000 H   0  0  0  0  0  0  0  0  0  0  0  0
   -1.6000   -0.0000    0.0000 C   0  0  0  0  0  0  0  0  0  0  0  0
   -2.4000    1.3856    0.0000 Cl  0  0  0  0  0  0  0  0  0  0  0  0
  1  2  1  0  0  0  0
  1  3  1  0  0  0  0
  3  4  1  0  0  0  0
  4  5  1  0  0  0  0
  4  6  2  0  0  0  0
  6  7  1  0  0  0  0
  6  8  1  0  0  0  0
  8  9  1  0  0  0  0
  8 10  2  0  0  0  0
 10 11  1  0  0  0  0
 10 12  1  0  0  0  0
 12  3  2  0  0  0  0
 12 13  1  0  0  0  0
M  END
> <ChemID>
100334

> <source_casrn>
87-65-0

> <CAS>
87-65-0

> <SMILES>
Oc1c(Cl)cccc1Cl

> <NAME>
2,6-DICHLOROPHENOL

> <preferred_name>
2,6-Dichlorophenol

> <iupac>
2,6-dichlorophenol

> <MPID>
19414

> <dsstox_substance_id>
DTXSID2025004

> <Canonical_QSARr>
Oc1c(Cl)cccc1Cl

> <InChI_Code_QSARr>
InChI=1S/C6H4Cl2O/c7-4-2-1-3-5(8)6(4)9/h1-3,9H

> <InChI Key_QSARr>
HOLHYSJJBXSLMV-UHFFFAOYSA-N

> <Salt_Solvent>
?

> <BP>
220.0

$$$$
100338
  -INDIGO-08031720192D

 13 13  0  0  0  0  0  0  0  0999 V2000
    0.8000    1.3856    0.0000 O   0  0  0  0  0  0  0  0  0  0  0  0
    2.4000    1.3856    0.0000 H   0  0  0  0  0  0  0  0  0  0  0  0
   -0.0000   -0.0000    0.0000 C   0  0  0  0  0  0  0  0  0  0  0  0
    0.8000   -1.3857    0.0000 C   0  0  0  0  0  0  0  0  0  0  0  0
    2.4000   -1.3857    0.0000 Cl  0  0  0  0  0  0  0  0  0  0  0  0
   -0.0000   -2.7713    0.0000 C   0  0  0  0  0  0  0  0  0  0  0  0
    0.8000   -4.1569    0.0000 Cl  0  0  0  0  0  0  0  0  0  0  0  0
   -1.6000   -2.7713    0.0000 C   0  0  0  0  0  0  0  0  0  0  0  0
   -2.4000   -4.1569    0.0000 Cl  0  0  0  0  0  0  0  0  0  0  0  0
   -2.4000   -1.3856    0.0000 C   0  0  0  0  0  0  0  0  0  0  0  0
   -4.0000   -1.3856    0.0000 Cl  0  0  0  0  0  0  0  0  0  0  0  0
   -1.6000   -0.0000    0.0000 C   0  0  0  0  0  0  0  0  0  0  0  0
   -2.4000    1.3856    0.0000 Cl  0  0  0  0  0  0  0  0  0  0  0  0
  1  2  1  0  0  0  0
  1  3  1  0  0  0  0
  3  4  1  0  0  0  0
  4  5  1  0  0  0  0
  4  6  2  0  0  0  0
  6  7  1  0  0  0  0
  6  8  1  0  0  0  0
  8  9  1  0  0  0  0
  8 10  2  0  0  0  0
 10 11  1  0  0  0  0
 10 12  1  0  0  0  0
 12  3  2  0  0  0  0
 12 13  1  0  0  0  0
M  END
> <ChemID>
100338

> <source_casrn>
87-86-5

> <CAS>
87-86-5

> <SMILES>
Oc1c(Cl)c(Cl)c(Cl)c(Cl)c1Cl

> <NAME>
PENTACHLOROPHENOL

> <preferred_name>
Pentachlorophenol

> <iupac>
pentachlorophenol

> <MPID>
19418

> <dsstox_substance_id>
DTXSID7021106

> <Canonical_QSARr>
Oc1c(Cl)c(Cl)c(Cl)c(Cl)c1Cl

> <InChI_Code_QSARr>
InChI=1S/C6HCl5O/c7-1-2(8)4(10)6(12)5(11)3(1)9/h12H

> <InChI Key_QSARr>
IZUPBVBPLAPZRR-UHFFFAOYSA-N

> <Salt_Solvent>
?

> <BP>
309.5

$$$$
100343
  -INDIGO-08031720192D

 13 13  0  0  0  0  0  0  0  0999 V2000
    0.8000    1.3856    0.0000 O   0  0  0  0  0  0  0  0  0  0  0  0
    2.4000    1.3856    0.0000 H   0  0  0  0  0  0  0  0  0  0  0  0
   -0.0000   -0.0000    0.0000 C   0  0  0  0  0  0  0  0  0  0  0  0
    0.8000   -1.3857    0.0000 C   0  0  0  0  0  0  0  0  0  0  0  0
    2.4000   -1.3857    0.0000 Cl  0  0  0  0  0  0  0  0  0  0  0  0
   -0.0000   -2.7713    0.0000 C   0  0  0  0  0  0  0  0  0  0  0  0
    0.8000   -4.1569    0.0000 H   0  0  0  0  0  0  0  0  0  0  0  0
   -1.6000   -2.7713    0.0000 C   0  0  0  0  0  0  0  0  0  0  0  0
   -2.4000   -4.1569    0.0000 Cl  0  0  0  0  0  0  0  0  0  0  0  0
   -2.4000   -1.3856    0.0000 C   0  0  0  0  0  0  0  0  0  0  0  0
   -4.0000   -1.3856    0.0000 H   0  0  0  0  0  0  0  0  0  0  0  0
   -1.6000   -0.0000    0.0000 C   0  0  0  0  0  0  0  0  0  0  0  0
   -2.4000    1.3856    0.0000 Cl  0  0  0  0  0  0  0  0  0  0  0  0
  1  2  1  0  0  0  0
  1  3  1  0  0  0  0
  3  4  1  0  0  0  0
  4  5  1  0  0  0  0
  4  6  2  0  0  0  0
  6  7  1  0  0  0  0
  6  8  1  0  0  0  0
  8  9  1  0  0  0  0
  8 10  2  0  0  0  0
 10 11  1  0  0  0  0
 10 12  1  0  0  0  0
 12  3  2  0  0  0  0
 12 13  1  0  0  0  0
M  END
> <ChemID>
100343

> <source_casrn>
88-06-2

> <CAS>
88-06-2

> <SMILES>
Oc1c(Cl)cc(Cl)cc1Cl

> <NAME>
2,4,6-TRICHLOROPHENOL

> <preferred_name>
2,4,6-Trichlorophenol

> <iupac>
C6H3Cl3O

> <MPID>
19422

> <dsstox_substance_id>
DTXSID5021386

> <Canonical_QSARr>
Oc1c(Cl)cc(Cl)cc1Cl

> <InChI_Code_QSARr>
InChI=1S/C6H3Cl3O/c7-3-1-4(8)6(10)5(9)2-3/h1-2,10H

> <InChI Key_QSARr>
LINPIYWFGCPVIE-UHFFFAOYSA-N

> <Salt_Solvent>
?

> <BP>
246.0

$$$$
100347
  -INDIGO-08031720192D

 14 14  0  0  0  0  0  0  0  0999 V2000
   -0.0000   -0.0000    0.0000 C   0  0  0  0  0  0  0  0  0  0  0  0
    1.5912    0.1673    0.0000 C   0  0  0  0  0  0  0  0  0  0  0  0
    2.5317   -1.1271    0.0000 C   0  0  0  0  0  0  0  0  0  0  0  0
    3.4721   -2.4216    0.0000 H   0  0  0  0  0  0  0  0  0  0  0  0
    4.1229   -0.9599    0.0000 H   0  0  0  0  0  0  0  0  0  0  0  0
    1.8809   -2.5889    0.0000 H   0  0  0  0  0  0  0  0  0  0  0  0
    2.2420    1.6289    0.0000 O   0  0  0  0  0  0  0  0  0  0  0  0
   -1.0707    1.1891    0.0000 C   0  0  0  0  0  0  0  0  0  0  0  0
   -0.7379    2.7541    0.0000 H   0  0  0  0  0  0  0  0  0  0  0  0
   -2.5323    0.5382    0.0000 C   0  0  0  0  0  0  0  0  0  0  0  0
   -3.9179    1.3383    0.0000 H   0  0  0  0  0  0  0  0  0  0  0  0
   -2.3651   -1.0530    0.0000 C   0  0  0  0  0  0  0  0  0  0  0  0
   -3.5540   -2.1236    0.0000 H   0  0  0  0  0  0  0  0  0  0  0  0
   -0.8000   -1.3857    0.0000 S   0  0  0  0  0  0  0  0  0  0  0  0
  1  2  1  0  0  0  0
  2  3  1  0  0  0  0
  3  4  1  0  0  0  0
  3  5  1  0  0  0  0
  3  6  1  0  0  0  0
  2  7  2  0  0  0  0
  1  8  2  0  0  0  0
  8  9  1  0  0  0  0
  8 10  1  0  0  0  0
 10 11  1  0  0  0  0
 10 12  2  0  0  0  0
 12 13  1  0  0  0  0
 12 14  1  0  0  0  0
 14  1  1  0  0  0  0
M  END
> <ChemID>
100347

> <source_casrn>
88-15-3

> <CAS>
88-15-3

> <SMILES>
CC(=O)c1ccc[s]1

> <NAME>
2-ACETYLTHIOPHENE

> <preferred_name>
Ethanone, 1-(2-thienyl)-

> <iupac>
1-thiophen-2-ylethanone

> <MPID>
19426

> <dsstox_substance_id>
DTXSID2058960

> <Canonical_QSARr>
CC(=O)c1ccc[s]1

> <InChI_Code_QSARr>
InChI=1S/C6H6OS/c1-5(7)6-3-2-4-8-6/h2-4H,1H3

> <InChI Key_QSARr>
WYJOVVXUZNRJQY-UHFFFAOYSA-N

> <Salt_Solvent>
?

> <BP>
213.5

$$$$
100351
  -INDIGO-08031720192D

 18 18  0  0  0  0  0  0  0  0999 V2000
    1.6000    0.0000    0.0000 C   0  0  0  0  0  0  0  0  0  0  0  0
    2.4000    1.3856    0.0000 N   0  0  0  0  0  0  0  0  0  0  0  0
    4.0000    1.3856    0.0000 H   0  0  0  0  0  0  0  0  0  0  0  0
    1.6000    2.7713    0.0000 H   0  0  0  0  0  0  0  0  0  0  0  0
    2.4000   -1.3856    0.0000 C   0  0  0  0  0  0  0  0  0  0  0  0
    4.0000   -1.3856    0.0000 H   0  0  0  0  0  0  0  0  0  0  0  0
    1.6000   -2.7713    0.0000 C   0  0  0  0  0  0  0  0  0  0  0  0
    2.4000   -4.1569    0.0000 H   0  0  0  0  0  0  0  0  0  0  0  0
    0.0000   -2.7713    0.0000 C   0  0  0  0  0  0  0  0  0  0  0  0
   -0.8000   -4.1569    0.0000 H   0  0  0  0  0  0  0  0  0  0  0  0
   -0.8000   -1.3856    0.0000 C   0  0  0  0  0  0  0  0  0  0  0  0
   -2.4000   -1.3856    0.0000 H   0  0  0  0  0  0  0  0  0  0  0  0
    0.0000    0.0000    0.0000 C   0  0  0  0  0  0  0  0  0  0  0  0
   -0.8000    1.3856    0.0000 C   0  0  0  0  0  0  0  0  0  0  0  0
    0.0000    2.7713    0.0000 O   0  0  0  0  0  0  0  0  0  0  0  0
   -2.4000    1.3856    0.0000 N   0  0  0  0  0  0  0  0  0  0  0  0
   -3.2000    2.7713    0.0000 H   0  0  0  0  0  0  0  0  0  0  0  0
   -3.2000    0.0000    0.0000 H   0  0  0  0  0  0  0  0  0  0  0  0
  1  2  1  0  0  0  0
  2  3  1  0  0  0  0
  2  4  1  0  0  0  0
  1  5  1  0  0  0  0
  5  6  1  0  0  0  0
  5  7  2  0  0  0  0
  7  8  1  0  0  0  0
  7  9  1  0  0  0  0
  9 10  1  0  0  0  0
  9 11  2  0  0  0  0
 11 12  1  0  0  0  0
 11 13  1  0  0  0  0
 13  1  2  0  0  0  0
 13 14  1  0  0  0  0
 14 15  2  0  0  0  0
 14 16  1  0  0  0  0
 16 17  1  0  0  0  0
 16 18  1  0  0  0  0
M  END
> <ChemID>
100351

> <source_casrn>
88-68-6

> <CAS>
88-68-6

> <SMILES>
Nc1ccccc1C(N)=O

> <NAME>
BENZAMIDE, 2-AMINO-

> <preferred_name>
2-Aminobenzamide

> <iupac>
2-aminobenzamide

> <MPID>
19430

> <dsstox_substance_id>
DTXSID2021789

> <Canonical_QSARr>
Nc1ccccc1C(N)=O

> <InChI_Code_QSARr>
InChI=1S/C7H8N2O/c8-6-4-2-1-3-5(6)7(9)10/h1-4H,8H2,(H2,9,10)

> <InChI Key_QSARr>
PXBFMLJZNCDSMP-UHFFFAOYSA-N

> <Salt_Solvent>
?

> <BP>
300.0

$$$$
100355
  -INDIGO-08031720192D

 16 16  0  0  0  0  0  0  0  0999 V2000
    1.3856    0.8000    0.0000 N   0  0  0  0  0  0  0  0  0  0  0  0
    1.3856    2.4000    0.0000 O   0  0  0  0  0  0  0  0  0  0  0  0
    2.7713   -0.0000    0.0000 O   0  0  0  0  0  0  0  0  0  0  0  0
    0.0000   -0.0000    0.0000 C   0  0  0  0  0  0  0  0  0  0  0  0
   -1.3856    0.8000    0.0000 C   0  0  0  0  0  0  0  0  0  0  0  0
   -1.3856    2.4000    0.0000 H   0  0  0  0  0  0  0  0  0  0  0  0
   -2.7713   -0.0000    0.0000 C   0  0  0  0  0  0  0  0  0  0  0  0
   -4.1569    0.8000    0.0000 H   0  0  0  0  0  0  0  0  0  0  0  0
   -2.7713   -1.6000    0.0000 C   0  0  0  0  0  0  0  0  0  0  0  0
   -4.1569   -2.4000    0.0000 H   0  0  0  0  0  0  0  0  0  0  0  0
   -1.3856   -2.4000    0.0000 C   0  0  0  0  0  0  0  0  0  0  0  0
   -1.3856   -4.0000    0.0000 H   0  0  0  0  0  0  0  0  0  0  0  0
    0.0000   -1.6000    0.0000 C   0  0  0  0  0  0  0  0  0  0  0  0
    1.3856   -2.4000    0.0000 N   0  0  0  0  0  0  0  0  0  0  0  0
    1.3856   -4.0000    0.0000 H   0  0  0  0  0  0  0  0  0  0  0  0
    2.7713   -1.6000    0.0000 H   0  0  0  0  0  0  0  0  0  0  0  0
  1  2  2  0  0  0  0
  1  3  1  0  0  0  0
  1  4  1  0  0  0  0
  4  5  1  0  0  0  0
  5  6  1  0  0  0  0
  5  7  2  0  0  0  0
  7  8  1  0  0  0  0
  7  9  1  0  0  0  0
  9 10  1  0  0  0  0
  9 11  2  0  0  0  0
 11 12  1  0  0  0  0
 11 13  1  0  0  0  0
 13  4  2  0  0  0  0
 13 14  1  0  0  0  0
 14 15  1  0  0  0  0
 14 16  1  0  0  0  0
M  CHG  2   1   1   3  -1
M  END
> <ChemID>
100355

> <source_casrn>
88-74-4

> <CAS>
88-74-4

> <SMILES>
Nc1ccccc1[N+]([O-])=O

> <NAME>
2-NITROANILINE

> <preferred_name>
2-Nitroaniline

> <iupac>
2-nitroaniline

> <MPID>
19434

> <dsstox_substance_id>
DTXSID1025726

> <Canonical_QSARr>
Nc1ccccc1[N+]([O-])=O

> <InChI_Code_QSARr>
InChI=1S/C6H6N2O2/c7-5-3-1-2-4-6(5)8(9)10/h1-4H,7H2

> <InChI Key_QSARr>
DPJCXCZTLWNFOH-UHFFFAOYSA-N

> <Salt_Solvent>
?

> <BP>
284.0

$$$$
100359
  -INDIGO-08031720192D

 36 36  0  0  0  0  0  0  0  0999 V2000
    3.5292   -1.8668    0.0000 C   0  0  0  0  0  0  0  0  0  0  0  0
    3.8071   -0.2912    0.0000 O   0  0  0  0  0  0  0  0  0  0  0  0
    2.0256   -2.4141    0.0000 O   0  0  0  0  0  0  0  0  0  0  0  0
    0.8001   -1.3856    0.0000 C   0  0  0  0  0  0  0  0  0  0  0  0
    2.0256   -0.3572    0.0000 H   0  0  0  0  0  0  0  0  0  0  0  0
   -0.0000   -0.0000    0.0000 C   0  0  0  0  0  0  0  0  0  0  0  0
    1.5035    0.5472    0.0000 H   0  0  0  0  0  0  0  0  0  0  0  0
   -0.2779    1.5757    0.0000 C   0  0  0  0  0  0  0  0  0  0  0  0
   -1.3221    1.5757    0.0000 H   0  0  0  0  0  0  0  0  0  0  0  0
   -1.0779    2.9614    0.0000 C   0  0  0  0  0  0  0  0  0  0  0  0
   -1.8778    4.3470    0.0000 H   0  0  0  0  0  0  0  0  0  0  0  0
   -0.2779    4.3470    0.0000 H   0  0  0  0  0  0  0  0  0  0  0  0
   -2.6778    2.9614    0.0000 H   0  0  0  0  0  0  0  0  0  0  0  0
    1.1078    2.3756    0.0000 C   0  0  0  0  0  0  0  0  0  0  0  0
    2.4934    3.1758    0.0000 H   0  0  0  0  0  0  0  0  0  0  0  0
    1.1078    3.9757    0.0000 H   0  0  0  0  0  0  0  0  0  0  0  0
    2.4934    1.5757    0.0000 H   0  0  0  0  0  0  0  0  0  0  0  0
   -1.6000   -0.0000    0.0000 C   0  0  0  0  0  0  0  0  0  0  0  0
   -1.7813    1.0284    0.0000 H   0  0  0  0  0  0  0  0  0  0  0  0
   -3.1035    0.5472    0.0000 H   0  0  0  0  0  0  0  0  0  0  0  0
   -2.3999   -1.3856    0.0000 C   0  0  0  0  0  0  0  0  0  0  0  0
   -3.6257   -0.3572    0.0000 H   0  0  0  0  0  0  0  0  0  0  0  0
   -3.6257   -2.4141    0.0000 H   0  0  0  0  0  0  0  0  0  0  0  0
   -1.6000   -2.7713    0.0000 C   0  0  0  0  0  0  0  0  0  0  0  0
   -1.3221   -4.3469    0.0000 H   0  0  0  0  0  0  0  0  0  0  0  0
   -2.9856   -3.5713    0.0000 C   0  0  0  0  0  0  0  0  0  0  0  0
   -4.3713   -4.3713    0.0000 H   0  0  0  0  0  0  0  0  0  0  0  0
   -2.9856   -5.1713    0.0000 H   0  0  0  0  0  0  0  0  0  0  0  0
   -4.3713   -2.7713    0.0000 H   0  0  0  0  0  0  0  0  0  0  0  0
   -0.0000   -2.7713    0.0000 C   0  0  0  0  0  0  0  0  0  0  0  0
   -0.2779   -4.3469    0.0000 H   0  0  0  0  0  0  0  0  0  0  0  0
    1.5035   -3.3185    0.0000 H   0  0  0  0  0  0  0  0  0  0  0  0
    4.7548   -2.8954    0.0000 C   0  0  0  0  0  0  0  0  0  0  0  0
    5.9805   -3.9238    0.0000 H   0  0  0  0  0  0  0  0  0  0  0  0
    6.2584   -2.3481    0.0000 H   0  0  0  0  0  0  0  0  0  0  0  0
    4.4769   -4.4711    0.0000 H   0  0  0  0  0  0  0  0  0  0  0  0
  1  2  2  0  0  0  0
  1  3  1  0  0  0  0
  3  4  1  0  0  0  0
  4  5  1  0  0  0  0
  4  6  1  0  0  0  0
  6  7  1  0  0  0  0
  6  8  1  0  0  0  0
  8  9  1  0  0  0  0
  8 10  1  0  0  0  0
 10 11  1  0  0  0  0
 10 12  1  0  0  0  0
 10 13  1  0  0  0  0
  8 14  1  0  0  0  0
 14 15  1  0  0  0  0
 14 16  1  0  0  0  0
 14 17  1  0  0  0  0
  6 18  1  0  0  0  0
 18 19  1  0  0  0  0
 18 20  1  0  0  0  0
 18 21  1  0  0  0  0
 21 22  1  0  0  0  0
 21 23  1  0  0  0  0
 21 24  1  0  0  0  0
 24 25  1  0  0  0  0
 24 26  1  0  0  0  0
 26 27  1  0  0  0  0
 26 28  1  0  0  0  0
 26 29  1  0  0  0  0
 24 30  1  0  0  0  0
 30  4  1  0  0  0  0
 30 31  1  0  0  0  0
 30 32  1  0  0  0  0
  1 33  1  0  0  0  0
 33 34  1  0  0  0  0
 33 35  1  0  0  0  0
 33 36  1  0  0  0  0
M  END
> <ChemID>
100359

> <source_casrn>
89-48-5|2623-23-6|5157-89-1|16409-45-3

> <CAS>
2623-23-6

> <SMILES>
CC(C)[C@@H]1CC[C@@H](C)C[C@H]1OC(C)=O

> <NAME>
Menthyl Acetate, (-)-(1R)-Menthyl Acetate, (+)-(1S)-Menthyl Acetate, dl-MENTHYL ACETATE

> <preferred_name>
L-Menthyl acetate

> <iupac>
(1R,2S,5R)-5-methyl-2-(propan-2-yl)cyclohexyl acetate

> <MPID>
19438|23283|23739|24238

> <dsstox_substance_id>
DTXSID7051472

> <Canonical_QSARr>
CC(C)C1CCC(C)CC1OC(C)=O

> <InChI_Code_QSARr>
InChI=1S/C12H22O2/c1-8(2)11-6-5-9(3)7-12(11)14-10(4)13/h8-9,11-12H,5-7H2,1-4H3

> <InChI Key_QSARr>
XHXUANMFYXWVNG-UHFFFAOYSA-N

> <Salt_Solvent>
?

> <BP>
228.25

$$$$
100363
  -INDIGO-08031720192D

 14 14  0  0  0  0  0  0  0  0999 V2000
    0.8000    1.3856    0.0000 C   0  0  0  0  0  0  0  0  0  0  0  0
    2.4000    1.3856    0.0000 C   0  0  0  0  0  0  0  0  0  0  0  0
    3.2000    2.7713    0.0000 H   0  0  0  0  0  0  0  0  0  0  0  0
    3.2000   -0.0000    0.0000 C   0  0  0  0  0  0  0  0  0  0  0  0
    4.8000    0.0000    0.0000 H   0  0  0  0  0  0  0  0  0  0  0  0
    2.4000   -1.3856    0.0000 C   0  0  0  0  0  0  0  0  0  0  0  0
    3.2000   -2.7713    0.0000 Cl  0  0  0  0  0  0  0  0  0  0  0  0
    0.8000   -1.3856    0.0000 C   0  0  0  0  0  0  0  0  0  0  0  0
    0.0000   -2.7713    0.0000 H   0  0  0  0  0  0  0  0  0  0  0  0
    0.0000   -0.0000    0.0000 C   0  0  0  0  0  0  0  0  0  0  0  0
   -1.6000    0.0000    0.0000 N   0  0  0  0  0  0  0  0  0  0  0  0
   -2.4000   -1.3856    0.0000 O   0  0  0  0  0  0  0  0  0  0  0  0
   -2.4000    1.3856    0.0000 O   0  0  0  0  0  0  0  0  0  0  0  0
    0.0000    2.7713    0.0000 Cl  0  0  0  0  0  0  0  0  0  0  0  0
  1  2  1  0  0  0  0
  2  3  1  0  0  0  0
  2  4  2  0  0  0  0
  4  5  1  0  0  0  0
  4  6  1  0  0  0  0
  6  7  1  0  0  0  0
  6  8  2  0  0  0  0
  8  9  1  0  0  0  0
  8 10  1  0  0  0  0
 10  1  2  0  0  0  0
 10 11  1  0  0  0  0
 11 12  1  0  0  0  0
 11 13  2  0  0  0  0
  1 14  1  0  0  0  0
M  CHG  2  11   1  12  -1
M  END
> <ChemID>
100363

> <source_casrn>
89-61-2

> <CAS>
89-61-2

> <SMILES>
[O-][N+](=O)c1cc(Cl)ccc1Cl

> <NAME>
2,5-DICHLORONITROBENZENE

> <preferred_name>
1,4-Dichloro-2-nitrobenzene

> <iupac>
1,4-dichloro-2-nitrobenzene

> <MPID>
19442

> <dsstox_substance_id>
DTXSID7052602

> <Canonical_QSARr>
[O-][N+](=O)c1cc(Cl)ccc1Cl

> <InChI_Code_QSARr>
InChI=1S/C6H3Cl2NO2/c7-4-1-2-5(8)6(3-4)9(10)11/h1-3H

> <InChI Key_QSARr>
RZKKOBGFCAHLCZ-UHFFFAOYSA-N

> <Salt_Solvent>
?

> <BP>
267.0

$$$$
100367
  -INDIGO-08031720192D

 25 25  0  0  0  0  0  0  0  0999 V2000
   -1.6000   -0.0000    0.0000 C   0  0  0  0  0  0  0  0  0  0  0  0
    0.0001   -0.0000    0.0000 C   0  0  0  0  0  0  0  0  0  0  0  0
    0.0001    1.6000    0.0000 H   0  0  0  0  0  0  0  0  0  0  0  0
    1.5036    0.5472    0.0000 C   0  0  0  0  0  0  0  0  0  0  0  0
    2.3631    1.8967    0.0000 H   0  0  0  0  0  0  0  0  0  0  0  0
    1.1572    2.1093    0.0000 H   0  0  0  0  0  0  0  0  0  0  0  0
    2.7292   -0.4812    0.0000 C   0  0  0  0  0  0  0  0  0  0  0  0
    3.9549   -1.5097    0.0000 H   0  0  0  0  0  0  0  0  0  0  0  0
    4.2327    0.0660    0.0000 H   0  0  0  0  0  0  0  0  0  0  0  0
    2.4514   -2.0570    0.0000 H   0  0  0  0  0  0  0  0  0  0  0  0
    0.0001   -1.6000    0.0000 C   0  0  0  0  0  0  0  0  0  0  0  0
    1.3856   -2.4000    0.0000 H   0  0  0  0  0  0  0  0  0  0  0  0
    0.0001   -3.2000    0.0000 H   0  0  0  0  0  0  0  0  0  0  0  0
    1.3856   -0.8000    0.0000 H   0  0  0  0  0  0  0  0  0  0  0  0
   -2.4000    1.3857    0.0000 C   0  0  0  0  0  0  0  0  0  0  0  0
   -1.6000    2.7713    0.0000 O   0  0  0  0  0  0  0  0  0  0  0  0
   -2.4000    4.1569    0.0000 H   0  0  0  0  0  0  0  0  0  0  0  0
   -4.0001    1.3857    0.0000 C   0  0  0  0  0  0  0  0  0  0  0  0
   -4.7999    2.7713    0.0000 H   0  0  0  0  0  0  0  0  0  0  0  0
   -4.7999   -0.0000    0.0000 C   0  0  0  0  0  0  0  0  0  0  0  0
   -6.4000   -0.0000    0.0000 H   0  0  0  0  0  0  0  0  0  0  0  0
   -4.0001   -1.3857    0.0000 C   0  0  0  0  0  0  0  0  0  0  0  0
   -4.7999   -2.7713    0.0000 H   0  0  0  0  0  0  0  0  0  0  0  0
   -2.4000   -1.3857    0.0000 C   0  0  0  0  0  0  0  0  0  0  0  0
   -1.6000   -2.7713    0.0000 H   0  0  0  0  0  0  0  0  0  0  0  0
  1  2  1  0  0  0  0
  2  3  1  0  0  0  0
  2  4  1  0  0  0  0
  4  5  1  0  0  0  0
  4  6  1  0  0  0  0
  4  7  1  0  0  0  0
  7  8  1  0  0  0  0
  7  9  1  0  0  0  0
  7 10  1  0  0  0  0
  2 11  1  0  0  0  0
 11 12  1  0  0  0  0
 11 13  1  0  0  0  0
 11 14  1  0  0  0  0
  1 15  1  0  0  0  0
 15 16  1  0  0  0  0
 16 17  1  0  0  0  0
 15 18  2  0  0  0  0
 18 19  1  0  0  0  0
 18 20  1  0  0  0  0
 20 21  1  0  0  0  0
 20 22  2  0  0  0  0
 22 23  1  0  0  0  0
 22 24  1  0  0  0  0
 24  1  2  0  0  0  0
 24 25  1  0  0  0  0
M  END
> <ChemID>
100367

> <source_casrn>
89-72-5

> <CAS>
89-72-5

> <SMILES>
CCC(C)c1ccccc1O

> <NAME>
O-SEC-BUTYLPHENOL

> <preferred_name>
2-(Butan-2-yl)phenol

> <iupac>
2-(butan-2-yl)phenol

> <MPID>
19446

> <dsstox_substance_id>
DTXSID2022331

> <Canonical_QSARr>
CCC(C)c1ccccc1O

> <InChI_Code_QSARr>
InChI=1S/C10H14O/c1-3-8(2)9-6-4-5-7-10(9)11/h4-8,11H,3H2,1-2H3

> <InChI Key_QSARr>
NGFPWHGISWUQOI-UHFFFAOYSA-N

> <Salt_Solvent>
?

> <BP>
228.0

$$$$
100371
  -INDIGO-08031720192D

 27 27  0  0  0  0  0  0  0  0999 V2000
    3.2001   -0.0000    0.0000 C   0  0  0  0  0  0  0  0  0  0  0  0
    2.4000    1.3857    0.0000 C   0  0  0  0  0  0  0  0  0  0  0  0
    3.9036    1.9329    0.0000 H   0  0  0  0  0  0  0  0  0  0  0  0
    2.1221    2.9613    0.0000 H   0  0  0  0  0  0  0  0  0  0  0  0
    0.8000    1.3857    0.0000 C   0  0  0  0  0  0  0  0  0  0  0  0
    1.0778    2.9613    0.0000 H   0  0  0  0  0  0  0  0  0  0  0  0
   -0.7035    1.9329    0.0000 H   0  0  0  0  0  0  0  0  0  0  0  0
    0.0000   -0.0000    0.0000 C   0  0  0  0  0  0  0  0  0  0  0  0
   -1.2257    1.0285    0.0000 H   0  0  0  0  0  0  0  0  0  0  0  0
   -1.5036   -0.5473    0.0000 C   0  0  0  0  0  0  0  0  0  0  0  0
   -3.0070   -1.0945    0.0000 H   0  0  0  0  0  0  0  0  0  0  0  0
   -2.7292    0.4812    0.0000 H   0  0  0  0  0  0  0  0  0  0  0  0
   -1.7813   -2.1229    0.0000 H   0  0  0  0  0  0  0  0  0  0  0  0
    0.8000   -1.3857    0.0000 C   0  0  0  0  0  0  0  0  0  0  0  0
   -0.7035   -1.9329    0.0000 H   0  0  0  0  0  0  0  0  0  0  0  0
    1.0778   -2.9613    0.0000 H   0  0  0  0  0  0  0  0  0  0  0  0
    2.4000   -1.3857    0.0000 C   0  0  0  0  0  0  0  0  0  0  0  0
    3.2001   -2.7713    0.0000 O   0  0  0  0  0  0  0  0  0  0  0  0
    4.8001   -0.0000    0.0000 C   0  0  0  0  0  0  0  0  0  0  0  0
    5.6000   -1.3857    0.0000 C   0  0  0  0  0  0  0  0  0  0  0  0
    6.4001   -2.7713    0.0000 H   0  0  0  0  0  0  0  0  0  0  0  0
    7.2000   -1.3857    0.0000 H   0  0  0  0  0  0  0  0  0  0  0  0
    4.8001   -2.7713    0.0000 H   0  0  0  0  0  0  0  0  0  0  0  0
    5.6000    1.3857    0.0000 C   0  0  0  0  0  0  0  0  0  0  0  0
    6.4001    2.7713    0.0000 H   0  0  0  0  0  0  0  0  0  0  0  0
    7.2000    1.3857    0.0000 H   0  0  0  0  0  0  0  0  0  0  0  0
    4.8001    2.7713    0.0000 H   0  0  0  0  0  0  0  0  0  0  0  0
  1  2  1  0  0  0  0
  2  3  1  0  0  0  0
  2  4  1  0  0  0  0
  2  5  1  0  0  0  0
  5  6  1  0  0  0  0
  5  7  1  0  0  0  0
  5  8  1  0  0  0  0
  8  9  1  0  0  0  0
  8 10  1  0  0  0  0
 10 11  1  0  0  0  0
 10 12  1  0  0  0  0
 10 13  1  0  0  0  0
  8 14  1  0  0  0  0
 14 15  1  0  0  0  0
 14 16  1  0  0  0  0
 14 17  1  0  0  0  0
 17  1  1  0  0  0  0
 17 18  2  0  0  0  0
  1 19  2  0  0  0  0
 19 20  1  0  0  0  0
 20 21  1  0  0  0  0
 20 22  1  0  0  0  0
 20 23  1  0  0  0  0
 19 24  1  0  0  0  0
 24 25  1  0  0  0  0
 24 26  1  0  0  0  0
 24 27  1  0  0  0  0
M  END
> <ChemID>
100371

> <source_casrn>
89-82-7

> <CAS>
89-82-7

> <SMILES>
CC(C)=C1CC[C@@H](C)CC1=O

> <NAME>
Pulegone

> <preferred_name>
R-(+)-Pulegone

> <iupac>
(5R)-5-methyl-2-(propan-2-ylidene)cyclohexanone

> <MPID>
19450

> <dsstox_substance_id>
DTXSID2025975

> <Canonical_QSARr>
CC(C)=C1CCC(C)CC1=O

> <InChI_Code_QSARr>
InChI=1S/C10H16O/c1-7(2)9-5-4-8(3)6-10(9)11/h8H,4-6H2,1-3H3

> <InChI Key_QSARr>
NZGWDASTMWDZIW-UHFFFAOYSA-N

> <Salt_Solvent>
?

> <BP>
224.0

$$$$
100375
  -INDIGO-08031720192D

 20 20  0  0  0  0  0  0  0  0999 V2000
   -0.0000    0.0000    0.0000 C   0  0  0  0  0  0  0  0  0  0  0  0
   -0.8000    1.3856    0.0000 C   0  0  0  0  0  0  0  0  0  0  0  0
   -0.0000    2.7713    0.0000 C   0  0  0  0  0  0  0  0  0  0  0  0
    0.8000    4.1569    0.0000 H   0  0  0  0  0  0  0  0  0  0  0  0
   -0.8000    4.1569    0.0000 H   0  0  0  0  0  0  0  0  0  0  0  0
    1.6000    2.7713    0.0000 H   0  0  0  0  0  0  0  0  0  0  0  0
   -2.4000    1.3856    0.0000 C   0  0  0  0  0  0  0  0  0  0  0  0
   -3.2001    2.7713    0.0000 H   0  0  0  0  0  0  0  0  0  0  0  0
   -3.2001    0.0000    0.0000 C   0  0  0  0  0  0  0  0  0  0  0  0
   -4.8000    0.0000    0.0000 H   0  0  0  0  0  0  0  0  0  0  0  0
   -2.4000   -1.3856    0.0000 C   0  0  0  0  0  0  0  0  0  0  0  0
   -3.2001   -2.7713    0.0000 H   0  0  0  0  0  0  0  0  0  0  0  0
   -0.8000   -1.3856    0.0000 C   0  0  0  0  0  0  0  0  0  0  0  0
   -0.0000   -2.7713    0.0000 H   0  0  0  0  0  0  0  0  0  0  0  0
    1.6000    0.0000    0.0000 C   0  0  0  0  0  0  0  0  0  0  0  0
    1.8088    1.5863    0.0000 H   0  0  0  0  0  0  0  0  0  0  0  0
    2.8694    0.9740    0.0000 H   0  0  0  0  0  0  0  0  0  0  0  0
    2.4001   -1.3856    0.0000 N   0  0  0  0  0  0  0  0  0  0  0  0
    4.0000   -1.3856    0.0000 H   0  0  0  0  0  0  0  0  0  0  0  0
    1.6000   -2.7713    0.0000 H   0  0  0  0  0  0  0  0  0  0  0  0
  1  2  1  0  0  0  0
  2  3  1  0  0  0  0
  3  4  1  0  0  0  0
  3  5  1  0  0  0  0
  3  6  1  0  0  0  0
  2  7  2  0  0  0  0
  7  8  1  0  0  0  0
  7  9  1  0  0  0  0
  9 10  1  0  0  0  0
  9 11  2  0  0  0  0
 11 12  1  0  0  0  0
 11 13  1  0  0  0  0
 13  1  2  0  0  0  0
 13 14  1  0  0  0  0
  1 15  1  0  0  0  0
 15 16  1  0  0  0  0
 15 17  1  0  0  0  0
 15 18  1  0  0  0  0
 18 19  1  0  0  0  0
 18 20  1  0  0  0  0
M  END
> <ChemID>
100375

> <source_casrn>
89-93-0

> <CAS>
89-93-0

> <SMILES>
Cc1ccccc1CN

> <NAME>
Benzenemethanamine, 2-methyl-

> <preferred_name>
Benzenemethanamine, 2-methyl-

> <iupac>
(2-methylphenyl)methanamine

> <MPID>
19454

> <dsstox_substance_id>
DTXSID3059000

> <Canonical_QSARr>
Cc1ccccc1CN

> <InChI_Code_QSARr>
InChI=1S/C8H11N/c1-7-4-2-3-5-8(7)6-9/h2-5H,6,9H2,1H3

> <InChI Key_QSARr>
CJAAPVQEZPAQNI-UHFFFAOYSA-N

> <Salt_Solvent>
?

> <BP>
206.0

$$$$
100379
  -INDIGO-08031720192D

 19 19  0  0  0  0  0  0  0  0999 V2000
   -0.8000    1.3856    0.0000 C   0  0  0  0  0  0  0  0  0  0  0  0
   -0.0000    0.0000    0.0000 C   0  0  0  0  0  0  0  0  0  0  0  0
    1.6000    0.0000    0.0000 C   0  0  0  0  0  0  0  0  0  0  0  0
    2.8694    0.9740    0.0000 H   0  0  0  0  0  0  0  0  0  0  0  0
    1.8088    1.5863    0.0000 H   0  0  0  0  0  0  0  0  0  0  0  0
    2.4001   -1.3856    0.0000 C   0  0  0  0  0  0  0  0  0  0  0  0
    4.0000   -1.3856    0.0000 H   0  0  0  0  0  0  0  0  0  0  0  0
    3.2000   -2.7713    0.0000 H   0  0  0  0  0  0  0  0  0  0  0  0
    3.2000    0.0000    0.0000 H   0  0  0  0  0  0  0  0  0  0  0  0
   -0.8000   -1.3856    0.0000 C   0  0  0  0  0  0  0  0  0  0  0  0
   -0.0000   -2.7713    0.0000 H   0  0  0  0  0  0  0  0  0  0  0  0
   -2.4000   -1.3856    0.0000 C   0  0  0  0  0  0  0  0  0  0  0  0
   -3.2001   -2.7713    0.0000 H   0  0  0  0  0  0  0  0  0  0  0  0
   -3.2001    0.0000    0.0000 C   0  0  0  0  0  0  0  0  0  0  0  0
   -4.8000    0.0000    0.0000 H   0  0  0  0  0  0  0  0  0  0  0  0
   -2.4000    1.3856    0.0000 C   0  0  0  0  0  0  0  0  0  0  0  0
   -3.2001    2.7713    0.0000 H   0  0  0  0  0  0  0  0  0  0  0  0
   -0.0000    2.7713    0.0000 O   0  0  0  0  0  0  0  0  0  0  0  0
   -0.8000    4.1569    0.0000 H   0  0  0  0  0  0  0  0  0  0  0  0
  1  2  1  0  0  0  0
  2  3  1  0  0  0  0
  3  4  1  0  0  0  0
  3  5  1  0  0  0  0
  3  6  1  0  0  0  0
  6  7  1  0  0  0  0
  6  8  1  0  0  0  0
  6  9  1  0  0  0  0
  2 10  2  0  0  0  0
 10 11  1  0  0  0  0
 10 12  1  0  0  0  0
 12 13  1  0  0  0  0
 12 14  2  0  0  0  0
 14 15  1  0  0  0  0
 14 16  1  0  0  0  0
 16  1  2  0  0  0  0
 16 17  1  0  0  0  0
  1 18  1  0  0  0  0
 18 19  1  0  0  0  0
M  END
> <ChemID>
100379

> <source_casrn>
90-00-6

> <CAS>
90-00-6

> <SMILES>
CCc1ccccc1O

> <NAME>
O-ETHYLPHENOL

> <preferred_name>
2-Ethylphenol

> <iupac>
2-ethylphenol

> <MPID>
19458

> <dsstox_substance_id>
DTXSID1022479

> <Canonical_QSARr>
CCc1ccccc1O

> <InChI_Code_QSARr>
InChI=1S/C8H10O/c1-2-7-5-3-4-6-8(7)9/h3-6,9H,2H2,1H3

> <InChI Key_QSARr>
IXQGCWUGDFDQMF-UHFFFAOYSA-N

> <Salt_Solvent>
?

> <BP>
204.5

$$$$
100383
  -INDIGO-08031720192D

 18 19  0  0  0  0  0  0  0  0999 V2000
    0.0001   -0.0000    0.0000 C   0  0  0  0  0  0  0  0  0  0  0  0
    1.3856    0.8000    0.0000 C   0  0  0  0  0  0  0  0  0  0  0  0
    1.3856    2.4000    0.0000 H   0  0  0  0  0  0  0  0  0  0  0  0
    2.7713   -0.0000    0.0000 C   0  0  0  0  0  0  0  0  0  0  0  0
    4.1569    0.8000    0.0000 H   0  0  0  0  0  0  0  0  0  0  0  0
    2.7713   -1.6000    0.0000 C   0  0  0  0  0  0  0  0  0  0  0  0
    4.1569   -2.4000    0.0000 H   0  0  0  0  0  0  0  0  0  0  0  0
    1.3856   -2.4000    0.0000 C   0  0  0  0  0  0  0  0  0  0  0  0
    1.3856   -4.0000    0.0000 H   0  0  0  0  0  0  0  0  0  0  0  0
    0.0001   -1.6000    0.0000 C   0  0  0  0  0  0  0  0  0  0  0  0
   -1.3856   -2.4000    0.0000 C   0  0  0  0  0  0  0  0  0  0  0  0
   -1.3856   -4.0000    0.0000 H   0  0  0  0  0  0  0  0  0  0  0  0
   -2.7712   -1.6000    0.0000 C   0  0  0  0  0  0  0  0  0  0  0  0
   -4.1569   -2.4000    0.0000 H   0  0  0  0  0  0  0  0  0  0  0  0
   -2.7712   -0.0000    0.0000 C   0  0  0  0  0  0  0  0  0  0  0  0
   -4.1569    0.8000    0.0000 H   0  0  0  0  0  0  0  0  0  0  0  0
   -1.3856    0.8000    0.0000 C   0  0  0  0  0  0  0  0  0  0  0  0
   -1.3856    2.4000    0.0000 Br  0  0  0  0  0  0  0  0  0  0  0  0
  1  2  1  0  0  0  0
  2  3  1  0  0  0  0
  2  4  2  0  0  0  0
  4  5  1  0  0  0  0
  4  6  1  0  0  0  0
  6  7  1  0  0  0  0
  6  8  2  0  0  0  0
  8  9  1  0  0  0  0
  8 10  1  0  0  0  0
 10  1  1  0  0  0  0
 10 11  2  0  0  0  0
 11 12  1  0  0  0  0
 11 13  1  0  0  0  0
 13 14  1  0  0  0  0
 13 15  2  0  0  0  0
 15 16  1  0  0  0  0
 15 17  1  0  0  0  0
 17  1  2  0  0  0  0
 17 18  1  0  0  0  0
M  END
> <ChemID>
100383

> <source_casrn>
90-11-9

> <CAS>
NOCAS_861681

> <SMILES>
Brc1cccc2ccccc21

> <NAME>
1-BROMONAPHTHALENE

> <preferred_name>


> <iupac>


> <MPID>
19462

> <dsstox_substance_id>
DTXSID30861681

> <Canonical_QSARr>
Brc1cccc2ccccc21

> <InChI_Code_QSARr>
InChI=1S/C10H7Br/c11-10-7-3-5-8-4-1-2-6-9(8)10/h1-7H

> <InChI Key_QSARr>
DLKQHBOKULLWDQ-UHFFFAOYSA-N

> <Salt_Solvent>
?

> <BP>
281.0

$$$$
100387
  -INDIGO-08031720192D

 19 20  0  0  0  0  0  0  0  0999 V2000
    2.4001    1.3856    0.0000 O   0  0  0  0  0  0  0  0  0  0  0  0
    4.0000    1.3856    0.0000 H   0  0  0  0  0  0  0  0  0  0  0  0
    1.6000    0.0000    0.0000 C   0  0  0  0  0  0  0  0  0  0  0  0
    2.4001   -1.3856    0.0000 C   0  0  0  0  0  0  0  0  0  0  0  0
    4.0000   -1.3856    0.0000 H   0  0  0  0  0  0  0  0  0  0  0  0
    1.6000   -2.7713    0.0000 C   0  0  0  0  0  0  0  0  0  0  0  0
    2.4001   -4.1569    0.0000 H   0  0  0  0  0  0  0  0  0  0  0  0
   -0.0000   -2.7713    0.0000 C   0  0  0  0  0  0  0  0  0  0  0  0
   -0.8000   -4.1569    0.0000 H   0  0  0  0  0  0  0  0  0  0  0  0
   -0.8000   -1.3856    0.0000 C   0  0  0  0  0  0  0  0  0  0  0  0
   -0.0000    0.0000    0.0000 C   0  0  0  0  0  0  0  0  0  0  0  0
   -0.8000    1.3856    0.0000 C   0  0  0  0  0  0  0  0  0  0  0  0
   -0.0000    2.7713    0.0000 H   0  0  0  0  0  0  0  0  0  0  0  0
   -2.4000    1.3856    0.0000 C   0  0  0  0  0  0  0  0  0  0  0  0
   -3.2001    2.7713    0.0000 H   0  0  0  0  0  0  0  0  0  0  0  0
   -3.2001    0.0000    0.0000 C   0  0  0  0  0  0  0  0  0  0  0  0
   -4.8000    0.0000    0.0000 H   0  0  0  0  0  0  0  0  0  0  0  0
   -2.4000   -1.3856    0.0000 C   0  0  0  0  0  0  0  0  0  0  0  0
   -3.2001   -2.7713    0.0000 H   0  0  0  0  0  0  0  0  0  0  0  0
  1  2  1  0  0  0  0
  1  3  1  0  0  0  0
  3  4  1  0  0  0  0
  4  5  1  0  0  0  0
  4  6  2  0  0  0  0
  6  7  1  0  0  0  0
  6  8  1  0  0  0  0
  8  9  1  0  0  0  0
  8 10  2  0  0  0  0
 10 11  1  0  0  0  0
 11  3  2  0  0  0  0
 11 12  1  0  0  0  0
 12 13  1  0  0  0  0
 12 14  2  0  0  0  0
 14 15  1  0  0  0  0
 14 16  1  0  0  0  0
 16 17  1  0  0  0  0
 16 18  2  0  0  0  0
 18 10  1  0  0  0  0
 18 19  1  0  0  0  0
M  END
> <ChemID>
100387

> <source_casrn>
90-15-3

> <CAS>
90-15-3

> <SMILES>
Oc1cccc2ccccc21

> <NAME>
1-NAPHTHOL

> <preferred_name>
1-Naphthol

> <iupac>
naphthalen-1-ol

> <MPID>
19466

> <dsstox_substance_id>
DTXSID6021793

> <Canonical_QSARr>
Oc1cccc2ccccc21

> <InChI_Code_QSARr>
InChI=1S/C10H8O/c11-10-7-3-5-8-4-1-2-6-9(8)10/h1-7,11H

> <InChI Key_QSARr>
KJCVRFUGPWSIIH-UHFFFAOYSA-N

> <Salt_Solvent>
?

> <BP>
288.0

$$$$
100391
  -INDIGO-08031720192D

 33 34  0  0  0  0  0  0  0  0999 V2000
   -0.0000    0.0000    0.0000 C   0  0  0  0  0  0  0  0  0  0  0  0
    0.5472   -1.5035    0.0000 H   0  0  0  0  0  0  0  0  0  0  0  0
   -0.0000    1.6000    0.0000 C   0  0  0  0  0  0  0  0  0  0  0  0
    0.7756    1.6635    0.0000 H   0  0  0  0  0  0  0  0  0  0  0  0
    0.5472    3.1035    0.0000 H   0  0  0  0  0  0  0  0  0  0  0  0
   -1.3857    2.4000    0.0000 C   0  0  0  0  0  0  0  0  0  0  0  0
   -0.3573    3.6257    0.0000 H   0  0  0  0  0  0  0  0  0  0  0  0
   -2.4141    3.6257    0.0000 H   0  0  0  0  0  0  0  0  0  0  0  0
   -2.7712    1.6000    0.0000 C   0  0  0  0  0  0  0  0  0  0  0  0
   -3.3185    3.1035    0.0000 H   0  0  0  0  0  0  0  0  0  0  0  0
   -4.3470    1.3222    0.0000 H   0  0  0  0  0  0  0  0  0  0  0  0
   -2.7712    0.0000    0.0000 C   0  0  0  0  0  0  0  0  0  0  0  0
   -4.3470    0.2779    0.0000 H   0  0  0  0  0  0  0  0  0  0  0  0
   -3.3185   -1.5035    0.0000 H   0  0  0  0  0  0  0  0  0  0  0  0
   -1.3857   -0.8000    0.0000 C   0  0  0  0  0  0  0  0  0  0  0  0
   -2.4141   -2.0257    0.0000 H   0  0  0  0  0  0  0  0  0  0  0  0
   -0.3573   -2.0257    0.0000 H   0  0  0  0  0  0  0  0  0  0  0  0
    1.5758    0.2779    0.0000 C   0  0  0  0  0  0  0  0  0  0  0  0
    1.5758    1.0562    0.0000 H   0  0  0  0  0  0  0  0  0  0  0  0
    1.8536   -1.2978    0.0000 C   0  0  0  0  0  0  0  0  0  0  0  0
    0.6279   -2.3263    0.0000 O   0  0  0  0  0  0  0  0  0  0  0  0
    3.3570   -1.8451    0.0000 C   0  0  0  0  0  0  0  0  0  0  0  0
    2.5571   -3.2307    0.0000 H   0  0  0  0  0  0  0  0  0  0  0  0
    4.5827   -2.8735    0.0000 H   0  0  0  0  0  0  0  0  0  0  0  0
    4.5827   -0.8166    0.0000 C   0  0  0  0  0  0  0  0  0  0  0  0
    5.3827   -2.2023    0.0000 H   0  0  0  0  0  0  0  0  0  0  0  0
    6.0862   -0.2694    0.0000 H   0  0  0  0  0  0  0  0  0  0  0  0
    4.3049    0.7590    0.0000 C   0  0  0  0  0  0  0  0  0  0  0  0
    5.9049    0.7590    0.0000 H   0  0  0  0  0  0  0  0  0  0  0  0
    4.5827    2.3347    0.0000 H   0  0  0  0  0  0  0  0  0  0  0  0
    2.8014    1.3063    0.0000 C   0  0  0  0  0  0  0  0  0  0  0  0
    3.6014    2.6919    0.0000 H   0  0  0  0  0  0  0  0  0  0  0  0
    1.5758    2.3347    0.0000 H   0  0  0  0  0  0  0  0  0  0  0  0
  1  2  1  0  0  0  0
  1  3  1  0  0  0  0
  3  4  1  0  0  0  0
  3  5  1  0  0  0  0
  3  6  1  0  0  0  0
  6  7  1  0  0  0  0
  6  8  1  0  0  0  0
  6  9  1  0  0  0  0
  9 10  1  0  0  0  0
  9 11  1  0  0  0  0
  9 12  1  0  0  0  0
 12 13  1  0  0  0  0
 12 14  1  0  0  0  0
 12 15  1  0  0  0  0
 15  1  1  0  0  0  0
 15 16  1  0  0  0  0
 15 17  1  0  0  0  0
  1 18  1  0  0  0  0
 18 19  1  0  0  0  0
 18 20  1  0  0  0  0
 20 21  2  0  0  0  0
 20 22  1  0  0  0  0
 22 23  1  0  0  0  0
 22 24  1  0  0  0  0
 22 25  1  0  0  0  0
 25 26  1  0  0  0  0
 25 27  1  0  0  0  0
 25 28  1  0  0  0  0
 28 29  1  0  0  0  0
 28 30  1  0  0  0  0
 28 31  1  0  0  0  0
 31 18  1  0  0  0  0
 31 32  1  0  0  0  0
 31 33  1  0  0  0  0
M  END
> <ChemID>
100391

> <source_casrn>
90-42-6

> <CAS>
90-42-6

> <SMILES>
O=C1CCCCC1C1CCCCC1

> <NAME>
1,1'-Bicyclohexyl -2-one

> <preferred_name>
1,1'-Bi(cyclohexyl)-2-one

> <iupac>
1,1'-bi(cyclohexyl)-2-one

> <MPID>
19470

> <dsstox_substance_id>
DTXSID8047424

> <Canonical_QSARr>
O=C1CCCCC1C1CCCCC1

> <InChI_Code_QSARr>
InChI=1S/C12H20O/c13-12-9-5-4-8-11(12)10-6-2-1-3-7-10/h10-11H,1-9H2

> <InChI Key_QSARr>
UOBQDYFTAJKQAL-UHFFFAOYSA-N

> <Salt_Solvent>
?

> <BP>
264.0

$$$$
100395
  -INDIGO-08031720192D

 24 25  0  0  0  0  0  0  0  0999 V2000
   -1.3857    0.8000    0.0000 C   0  0  0  0  0  0  0  0  0  0  0  0
   -1.1077    2.3757    0.0000 O   0  0  0  0  0  0  0  0  0  0  0  0
   -2.9613    0.5222    0.0000 C   0  0  0  0  0  0  0  0  0  0  0  0
   -3.5086   -0.9813    0.0000 C   0  0  0  0  0  0  0  0  0  0  0  0
   -2.4802   -2.2071    0.0000 H   0  0  0  0  0  0  0  0  0  0  0  0
   -5.0842   -1.2591    0.0000 C   0  0  0  0  0  0  0  0  0  0  0  0
   -5.6315   -2.7627    0.0000 H   0  0  0  0  0  0  0  0  0  0  0  0
   -6.1126   -0.0335    0.0000 C   0  0  0  0  0  0  0  0  0  0  0  0
   -7.6884   -0.3113    0.0000 Cl  0  0  0  0  0  0  0  0  0  0  0  0
   -5.5655    1.4700    0.0000 C   0  0  0  0  0  0  0  0  0  0  0  0
   -6.5940    2.6957    0.0000 H   0  0  0  0  0  0  0  0  0  0  0  0
   -3.9898    1.7479    0.0000 C   0  0  0  0  0  0  0  0  0  0  0  0
   -3.4426    3.2513    0.0000 H   0  0  0  0  0  0  0  0  0  0  0  0
    0.0001    0.0001    0.0000 C   0  0  0  0  0  0  0  0  0  0  0  0
    0.0001   -1.6000    0.0000 C   0  0  0  0  0  0  0  0  0  0  0  0
   -1.3857   -2.4000    0.0000 H   0  0  0  0  0  0  0  0  0  0  0  0
    1.3857   -2.4000    0.0000 C   0  0  0  0  0  0  0  0  0  0  0  0
    1.3857   -4.0000    0.0000 H   0  0  0  0  0  0  0  0  0  0  0  0
    2.7713   -1.6000    0.0000 C   0  0  0  0  0  0  0  0  0  0  0  0
    4.1569   -2.4000    0.0000 Cl  0  0  0  0  0  0  0  0  0  0  0  0
    2.7713    0.0001    0.0000 C   0  0  0  0  0  0  0  0  0  0  0  0
    4.1569    0.8000    0.0000 H   0  0  0  0  0  0  0  0  0  0  0  0
    1.3857    0.8000    0.0000 C   0  0  0  0  0  0  0  0  0  0  0  0
    1.3857    2.4000    0.0000 H   0  0  0  0  0  0  0  0  0  0  0  0
  1  2  2  0  0  0  0
  1  3  1  0  0  0  0
  3  4  1  0  0  0  0
  4  5  1  0  0  0  0
  4  6  2  0  0  0  0
  6  7  1  0  0  0  0
  6  8  1  0  0  0  0
  8  9  1  0  0  0  0
  8 10  2  0  0  0  0
 10 11  1  0  0  0  0
 10 12  1  0  0  0  0
 12  3  2  0  0  0  0
 12 13  1  0  0  0  0
  1 14  1  0  0  0  0
 14 15  1  0  0  0  0
 15 16  1  0  0  0  0
 15 17  2  0  0  0  0
 17 18  1  0  0  0  0
 17 19  1  0  0  0  0
 19 20  1  0  0  0  0
 19 21  2  0  0  0  0
 21 22  1  0  0  0  0
 21 23  1  0  0  0  0
 23 14  2  0  0  0  0
 23 24  1  0  0  0  0
M  END
> <ChemID>
100395

> <source_casrn>
90-98-2

> <CAS>
90-98-2

> <SMILES>
O=C(c1ccc(Cl)cc1)c1ccc(Cl)cc1

> <NAME>
Methanone, bis(4-chlorophenyl)-

> <preferred_name>
4,4'-Dichlorobenzophenone

> <iupac>
bis(4-chlorophenyl)methanone

> <MPID>
19474

> <dsstox_substance_id>
DTXSID3037626

> <Canonical_QSARr>
O=C(c1ccc(Cl)cc1)c1ccc(Cl)cc1

> <InChI_Code_QSARr>
InChI=1S/C13H8Cl2O/c14-11-5-1-9(2-6-11)13(16)10-3-7-12(15)8-4-10/h1-8H

> <InChI Key_QSARr>
OKISUZLXOYGIFP-UHFFFAOYSA-N

> <Salt_Solvent>
?

> <BP>
353.0

$$$$
100399
  -INDIGO-08031720192D

 21 21  0  0  0  0  0  0  0  0999 V2000
   -0.0000    0.0000    0.0000 C   0  0  0  0  0  0  0  0  0  0  0  0
    0.7999   -1.3856    0.0000 C   0  0  0  0  0  0  0  0  0  0  0  0
    2.4000   -1.3856    0.0000 H   0  0  0  0  0  0  0  0  0  0  0  0
   -0.0000   -2.7713    0.0000 C   0  0  0  0  0  0  0  0  0  0  0  0
    0.7999   -4.1569    0.0000 H   0  0  0  0  0  0  0  0  0  0  0  0
   -1.6000   -2.7713    0.0000 C   0  0  0  0  0  0  0  0  0  0  0  0
   -2.4000   -4.1569    0.0000 H   0  0  0  0  0  0  0  0  0  0  0  0
   -2.4000   -1.3856    0.0000 C   0  0  0  0  0  0  0  0  0  0  0  0
   -4.0001   -1.3856    0.0000 O   0  0  0  0  0  0  0  0  0  0  0  0
   -4.8000   -2.7713    0.0000 C   0  0  0  0  0  0  0  0  0  0  0  0
   -6.4000   -2.7713    0.0000 H   0  0  0  0  0  0  0  0  0  0  0  0
   -5.6000   -4.1569    0.0000 H   0  0  0  0  0  0  0  0  0  0  0  0
   -5.6000   -1.3856    0.0000 H   0  0  0  0  0  0  0  0  0  0  0  0
   -1.6000    0.0000    0.0000 C   0  0  0  0  0  0  0  0  0  0  0  0
   -2.4000    1.3856    0.0000 O   0  0  0  0  0  0  0  0  0  0  0  0
   -4.0001    1.3856    0.0000 H   0  0  0  0  0  0  0  0  0  0  0  0
    0.7999    1.3856    0.0000 O   0  0  0  0  0  0  0  0  0  0  0  0
    2.4000    1.3856    0.0000 C   0  0  0  0  0  0  0  0  0  0  0  0
    3.2000    2.7713    0.0000 H   0  0  0  0  0  0  0  0  0  0  0  0
    4.0000    1.3856    0.0000 H   0  0  0  0  0  0  0  0  0  0  0  0
    1.6001    2.7713    0.0000 H   0  0  0  0  0  0  0  0  0  0  0  0
  1  2  1  0  0  0  0
  2  3  1  0  0  0  0
  2  4  2  0  0  0  0
  4  5  1  0  0  0  0
  4  6  1  0  0  0  0
  6  7  1  0  0  0  0
  6  8  2  0  0  0  0
  8  9  1  0  0  0  0
  9 10  1  0  0  0  0
 10 11  1  0  0  0  0
 10 12  1  0  0  0  0
 10 13  1  0  0  0  0
  8 14  1  0  0  0  0
 14  1  2  0  0  0  0
 14 15  1  0  0  0  0
 15 16  1  0  0  0  0
  1 17  1  0  0  0  0
 17 18  1  0  0  0  0
 18 19  1  0  0  0  0
 18 20  1  0  0  0  0
 18 21  1  0  0  0  0
M  END
> <ChemID>
100399

> <source_casrn>
91-10-1

> <CAS>
91-10-1

> <SMILES>
COc1cccc(OC)c1O

> <NAME>
2,6-Dimethoxyphenol

> <preferred_name>
2,6-Dimethoxyphenol

> <iupac>
2,6-dimethoxyphenol

> <MPID>
19478

> <dsstox_substance_id>
DTXSID2052607

> <Canonical_QSARr>
COc1cccc(OC)c1O

> <InChI_Code_QSARr>
InChI=1S/C8H10O3/c1-10-6-4-3-5-7(11-2)8(6)9/h3-5,9H,1-2H3

> <InChI Key_QSARr>
KLIDCXVFHGNTTM-UHFFFAOYSA-N

> <Salt_Solvent>
?

> <BP>
261.0

$$$$
100403
  -INDIGO-08031720192D

 18 19  0  0  0  0  0  0  0  0999 V2000
    1.3856    2.4000    0.0000 C   0  0  0  0  0  0  0  0  0  0  0  0
    1.3856    4.0000    0.0000 H   0  0  0  0  0  0  0  0  0  0  0  0
    0.0001    1.6000    0.0000 C   0  0  0  0  0  0  0  0  0  0  0  0
    0.0001    0.0000    0.0000 C   0  0  0  0  0  0  0  0  0  0  0  0
   -1.3856   -0.8000    0.0000 C   0  0  0  0  0  0  0  0  0  0  0  0
   -1.3856   -2.4000    0.0000 H   0  0  0  0  0  0  0  0  0  0  0  0
   -2.7712    0.0000    0.0000 C   0  0  0  0  0  0  0  0  0  0  0  0
   -4.1569   -0.8000    0.0000 H   0  0  0  0  0  0  0  0  0  0  0  0
   -2.7712    1.6000    0.0000 C   0  0  0  0  0  0  0  0  0  0  0  0
   -4.1569    2.4000    0.0000 H   0  0  0  0  0  0  0  0  0  0  0  0
   -1.3856    2.4000    0.0000 C   0  0  0  0  0  0  0  0  0  0  0  0
   -1.3856    4.0000    0.0000 H   0  0  0  0  0  0  0  0  0  0  0  0
    1.3856   -0.8000    0.0000 C   0  0  0  0  0  0  0  0  0  0  0  0
    1.3856   -2.4000    0.0000 H   0  0  0  0  0  0  0  0  0  0  0  0
    2.7713    0.0000    0.0000 C   0  0  0  0  0  0  0  0  0  0  0  0
    4.1569   -0.8000    0.0000 H   0  0  0  0  0  0  0  0  0  0  0  0
    2.7713    1.6000    0.0000 C   0  0  0  0  0  0  0  0  0  0  0  0
    4.1569    2.4000    0.0000 H   0  0  0  0  0  0  0  0  0  0  0  0
  1  2  1  0  0  0  0
  1  3  1  0  0  0  0
  3  4  1  0  0  0  0
  4  5  2  0  0  0  0
  5  6  1  0  0  0  0
  5  7  1  0  0  0  0
  7  8  1  0  0  0  0
  7  9  2  0  0  0  0
  9 10  1  0  0  0  0
  9 11  1  0  0  0  0
 11  3  2  0  0  0  0
 11 12  1  0  0  0  0
  4 13  1  0  0  0  0
 13 14  1  0  0  0  0
 13 15  2  0  0  0  0
 15 16  1  0  0  0  0
 15 17  1  0  0  0  0
 17  1  2  0  0  0  0
 17 18  1  0  0  0  0
M  END
> <ChemID>
100403

> <source_casrn>
91-20-3

> <CAS>
91-20-3

> <SMILES>
c1cccc2ccccc21

> <NAME>
NAPHTHALENE

> <preferred_name>
Naphthalene

> <iupac>
naphthalene

> <MPID>
19482

> <dsstox_substance_id>
DTXSID8020913

> <Canonical_QSARr>
c1cccc2ccccc21

> <InChI_Code_QSARr>
InChI=1S/C10H8/c1-2-6-10-8-4-3-7-9(10)5-1/h1-8H

> <InChI Key_QSARr>
UFWIBTONFRDIAS-UHFFFAOYSA-N

> <Salt_Solvent>
?

> <BP>
217.9

$$$$
100407
  -INDIGO-08031720192D

 31 31  0  0  0  0  0  0  0  0999 V2000
   -0.8251    3.0791    0.0000 C   0  0  0  0  0  0  0  0  0  0  0  0
    0.2034    4.3049    0.0000 H   0  0  0  0  0  0  0  0  0  0  0  0
   -1.3724    4.5827    0.0000 H   0  0  0  0  0  0  0  0  0  0  0  0
    0.7507    2.8013    0.0000 H   0  0  0  0  0  0  0  0  0  0  0  0
   -1.8535    1.8535    0.0000 C   0  0  0  0  0  0  0  0  0  0  0  0
   -3.3571    2.4008    0.0000 O   0  0  0  0  0  0  0  0  0  0  0  0
   -1.5756    0.2779    0.0000 N   0  0  0  0  0  0  0  0  0  0  0  0
   -2.8013   -0.7507    0.0000 C   0  0  0  0  0  0  0  0  0  0  0  0
   -2.8013   -2.3506    0.0000 C   0  0  0  0  0  0  0  0  0  0  0  0
   -1.4158   -3.1507    0.0000 H   0  0  0  0  0  0  0  0  0  0  0  0
   -4.1870   -3.1507    0.0000 C   0  0  0  0  0  0  0  0  0  0  0  0
   -4.1870   -4.7506    0.0000 H   0  0  0  0  0  0  0  0  0  0  0  0
   -5.5726   -2.3506    0.0000 C   0  0  0  0  0  0  0  0  0  0  0  0
   -6.9583   -3.1507    0.0000 H   0  0  0  0  0  0  0  0  0  0  0  0
   -5.5726   -0.7507    0.0000 C   0  0  0  0  0  0  0  0  0  0  0  0
   -6.9583    0.0494    0.0000 H   0  0  0  0  0  0  0  0  0  0  0  0
   -4.1870    0.0494    0.0000 C   0  0  0  0  0  0  0  0  0  0  0  0
   -4.1870    1.6493    0.0000 H   0  0  0  0  0  0  0  0  0  0  0  0
   -0.0000    0.0001    0.0000 C   0  0  0  0  0  0  0  0  0  0  0  0
    1.4193    0.7388    0.0000 H   0  0  0  0  0  0  0  0  0  0  0  0
    0.4810    1.5259    0.0000 H   0  0  0  0  0  0  0  0  0  0  0  0
    0.5472   -1.5035    0.0000 C   0  0  0  0  0  0  0  0  0  0  0  0
   -0.8720   -2.2424    0.0000 H   0  0  0  0  0  0  0  0  0  0  0  0
    0.0661   -3.0294    0.0000 H   0  0  0  0  0  0  0  0  0  0  0  0
    2.1230   -1.7814    0.0000 C   0  0  0  0  0  0  0  0  0  0  0  0
    3.5422   -1.0425    0.0000 H   0  0  0  0  0  0  0  0  0  0  0  0
    2.6041   -0.2553    0.0000 H   0  0  0  0  0  0  0  0  0  0  0  0
    2.6701   -3.2848    0.0000 C   0  0  0  0  0  0  0  0  0  0  0  0
    3.2173   -4.7884    0.0000 H   0  0  0  0  0  0  0  0  0  0  0  0
    4.2459   -3.5626    0.0000 H   0  0  0  0  0  0  0  0  0  0  0  0
    1.6417   -4.5105    0.0000 H   0  0  0  0  0  0  0  0  0  0  0  0
  1  2  1  0  0  0  0
  1  3  1  0  0  0  0
  1  4  1  0  0  0  0
  1  5  1  0  0  0  0
  5  6  2  0  0  0  0
  5  7  1  0  0  0  0
  7  8  1  0  0  0  0
  8  9  1  0  0  0  0
  9 10  1  0  0  0  0
  9 11  2  0  0  0  0
 11 12  1  0  0  0  0
 11 13  1  0  0  0  0
 13 14  1  0  0  0  0
 13 15  2  0  0  0  0
 15 16  1  0  0  0  0
 15 17  1  0  0  0  0
 17  8  2  0  0  0  0
 17 18  1  0  0  0  0
  7 19  1  0  0  0  0
 19 20  1  0  0  0  0
 19 21  1  0  0  0  0
 19 22  1  0  0  0  0
 22 23  1  0  0  0  0
 22 24  1  0  0  0  0
 22 25  1  0  0  0  0
 25 26  1  0  0  0  0
 25 27  1  0  0  0  0
 25 28  1  0  0  0  0
 28 29  1  0  0  0  0
 28 30  1  0  0  0  0
 28 31  1  0  0  0  0
M  END
> <ChemID>
100407

> <source_casrn>
91-49-6

> <CAS>
91-49-6

> <SMILES>
CC(=O)N(CCCC)c1ccccc1

> <NAME>
Acetamide, N-butyl-N-phenyl-

> <preferred_name>
N-Butylacetanilide

> <iupac>
N-butyl-N-phenylacetamide

> <MPID>
19486

> <dsstox_substance_id>
DTXSID2042197

> <Canonical_QSARr>
CC(=O)N(CCCC)c1ccccc1

> <InChI_Code_QSARr>
InChI=1S/C12H17NO/c1-3-4-10-13(11(2)14)12-8-6-5-7-9-12/h5-9H,3-4,10H2,1-2H3

> <InChI Key_QSARr>
ZWDZJRRQSXLOQR-UHFFFAOYSA-N

> <Salt_Solvent>
?

> <BP>
281.0

$$$$
100411
  -INDIGO-08031720192D

 20 21  0  0  0  0  0  0  0  0999 V2000
   -0.0001   -0.0000    0.0000 C   0  0  0  0  0  0  0  0  0  0  0  0
    1.3857    0.8000    0.0000 C   0  0  0  0  0  0  0  0  0  0  0  0
    1.3857    2.4000    0.0000 H   0  0  0  0  0  0  0  0  0  0  0  0
    2.7713   -0.0000    0.0000 C   0  0  0  0  0  0  0  0  0  0  0  0
    4.1569    0.8000    0.0000 N   0  0  0  0  0  0  0  0  0  0  0  0
    5.5426   -0.0000    0.0000 H   0  0  0  0  0  0  0  0  0  0  0  0
    4.1569    2.4000    0.0000 H   0  0  0  0  0  0  0  0  0  0  0  0
    2.7713   -1.6000    0.0000 C   0  0  0  0  0  0  0  0  0  0  0  0
    4.1569   -2.4000    0.0000 H   0  0  0  0  0  0  0  0  0  0  0  0
    1.3857   -2.4000    0.0000 C   0  0  0  0  0  0  0  0  0  0  0  0
    1.3857   -4.0000    0.0000 H   0  0  0  0  0  0  0  0  0  0  0  0
   -0.0001   -1.6000    0.0000 C   0  0  0  0  0  0  0  0  0  0  0  0
   -1.3857   -2.4000    0.0000 C   0  0  0  0  0  0  0  0  0  0  0  0
   -1.3857   -4.0000    0.0000 H   0  0  0  0  0  0  0  0  0  0  0  0
   -2.7713   -1.6000    0.0000 C   0  0  0  0  0  0  0  0  0  0  0  0
   -4.1569   -2.4000    0.0000 H   0  0  0  0  0  0  0  0  0  0  0  0
   -2.7713   -0.0000    0.0000 C   0  0  0  0  0  0  0  0  0  0  0  0
   -4.1569    0.8000    0.0000 H   0  0  0  0  0  0  0  0  0  0  0  0
   -1.3857    0.8000    0.0000 C   0  0  0  0  0  0  0  0  0  0  0  0
   -1.3857    2.4000    0.0000 H   0  0  0  0  0  0  0  0  0  0  0  0
  1  2  1  0  0  0  0
  2  3  1  0  0  0  0
  2  4  2  0  0  0  0
  4  5  1  0  0  0  0
  5  6  1  0  0  0  0
  5  7  1  0  0  0  0
  4  8  1  0  0  0  0
  8  9  1  0  0  0  0
  8 10  2  0  0  0  0
 10 11  1  0  0  0  0
 10 12  1  0  0  0  0
 12  1  1  0  0  0  0
 12 13  2  0  0  0  0
 13 14  1  0  0  0  0
 13 15  1  0  0  0  0
 15 16  1  0  0  0  0
 15 17  2  0  0  0  0
 17 18  1  0  0  0  0
 17 19  1  0  0  0  0
 19  1  2  0  0  0  0
 19 20  1  0  0  0  0
M  END
> <ChemID>
100411

> <source_casrn>
91-59-8

> <CAS>
91-59-8

> <SMILES>
Nc1cc2ccccc2cc1

> <NAME>
2-NAPHTHYLAMINE

> <preferred_name>
2-Naphthylamine

> <iupac>
naphthalen-2-amine

> <MPID>
19490

> <dsstox_substance_id>
DTXSID2020921

> <Canonical_QSARr>
Nc1cc2ccccc2cc1

> <InChI_Code_QSARr>
InChI=1S/C10H9N/c11-10-6-5-8-3-1-2-4-9(8)7-10/h1-7H,11H2

> <InChI Key_QSARr>
JBIJLHTVPXGSAM-UHFFFAOYSA-N

> <Salt_Solvent>
?

> <BP>
300.0

$$$$
100415
  -INDIGO-08031720192D

 17 18  0  0  0  0  0  0  0  0999 V2000
   -4.1569   -2.4000    0.0000 O   0  0  0  0  0  0  0  0  0  0  0  0
   -2.7712   -1.6000    0.0000 C   0  0  0  0  0  0  0  0  0  0  0  0
   -1.3856   -2.4000    0.0000 O   0  0  0  0  0  0  0  0  0  0  0  0
    0.0001   -1.6000    0.0000 C   0  0  0  0  0  0  0  0  0  0  0  0
    0.0001   -0.0000    0.0000 C   0  0  0  0  0  0  0  0  0  0  0  0
    1.3856    0.8000    0.0000 C   0  0  0  0  0  0  0  0  0  0  0  0
    1.3856    2.4000    0.0000 H   0  0  0  0  0  0  0  0  0  0  0  0
    2.7713   -0.0000    0.0000 C   0  0  0  0  0  0  0  0  0  0  0  0
    4.1569    0.8000    0.0000 H   0  0  0  0  0  0  0  0  0  0  0  0
    2.7713   -1.6000    0.0000 C   0  0  0  0  0  0  0  0  0  0  0  0
    4.1569   -2.4000    0.0000 H   0  0  0  0  0  0  0  0  0  0  0  0
    1.3856   -2.4000    0.0000 C   0  0  0  0  0  0  0  0  0  0  0  0
    1.3856   -4.0000    0.0000 H   0  0  0  0  0  0  0  0  0  0  0  0
   -1.3856    0.8000    0.0000 C   0  0  0  0  0  0  0  0  0  0  0  0
   -1.3856    2.4000    0.0000 H   0  0  0  0  0  0  0  0  0  0  0  0
   -2.7712   -0.0000    0.0000 C   0  0  0  0  0  0  0  0  0  0  0  0
   -4.1569    0.8000    0.0000 H   0  0  0  0  0  0  0  0  0  0  0  0
  1  2  2  0  0  0  0
  2  3  1  0  0  0  0
  3  4  1  0  0  0  0
  4  5  1  0  0  0  0
  5  6  2  0  0  0  0
  6  7  1  0  0  0  0
  6  8  1  0  0  0  0
  8  9  1  0  0  0  0
  8 10  2  0  0  0  0
 10 11  1  0  0  0  0
 10 12  1  0  0  0  0
 12  4  2  0  0  0  0
 12 13  1  0  0  0  0
  5 14  1  0  0  0  0
 14 15  1  0  0  0  0
 14 16  2  0  0  0  0
 16  2  1  0  0  0  0
 16 17  1  0  0  0  0
M  END
> <ChemID>
100415

> <source_casrn>
91-64-5

> <CAS>
91-64-5

> <SMILES>
O=C1C=Cc2ccccc2O1

> <NAME>
COUMARIN

> <preferred_name>
Coumarin

> <iupac>
2H-chromen-2-one

> <MPID>
19494

> <dsstox_substance_id>
DTXSID7020348

> <Canonical_QSARr>
O=C1C=Cc2ccccc2O1

> <InChI_Code_QSARr>
InChI=1S/C9H6O2/c10-9-6-5-7-3-1-2-4-8(7)11-9/h1-6H

> <InChI Key_QSARr>
ZYGHJZDHTFUPRJ-UHFFFAOYSA-N

> <Salt_Solvent>
?

> <BP>
301.7

$$$$
100419
  -INDIGO-08031720192D

 27 27  0  0  0  0  0  0  0  0999 V2000
    0.0000    0.0000    0.0000 N   0  0  0  0  0  0  0  0  0  0  0  0
   -0.7999    1.3856    0.0000 C   0  0  0  0  0  0  0  0  0  0  0  0
    0.4693    2.3596    0.0000 H   0  0  0  0  0  0  0  0  0  0  0  0
   -0.5911    2.9720    0.0000 H   0  0  0  0  0  0  0  0  0  0  0  0
   -2.4000    1.3856    0.0000 C   0  0  0  0  0  0  0  0  0  0  0  0
   -4.0000    1.3856    0.0000 H   0  0  0  0  0  0  0  0  0  0  0  0
   -3.2000    2.7712    0.0000 H   0  0  0  0  0  0  0  0  0  0  0  0
   -1.6001    2.7712    0.0000 H   0  0  0  0  0  0  0  0  0  0  0  0
   -0.7999   -1.3856    0.0000 C   0  0  0  0  0  0  0  0  0  0  0  0
   -0.5911   -2.9720    0.0000 H   0  0  0  0  0  0  0  0  0  0  0  0
    0.4693   -2.3596    0.0000 H   0  0  0  0  0  0  0  0  0  0  0  0
   -2.4000   -1.3856    0.0000 C   0  0  0  0  0  0  0  0  0  0  0  0
   -3.2000   -2.7712    0.0000 H   0  0  0  0  0  0  0  0  0  0  0  0
   -4.0000   -1.3856    0.0000 H   0  0  0  0  0  0  0  0  0  0  0  0
   -1.6001   -2.7712    0.0000 H   0  0  0  0  0  0  0  0  0  0  0  0
    1.6000    0.0000    0.0000 C   0  0  0  0  0  0  0  0  0  0  0  0
    2.4000    1.3856    0.0000 C   0  0  0  0  0  0  0  0  0  0  0  0
    1.6000    2.7713    0.0000 H   0  0  0  0  0  0  0  0  0  0  0  0
    4.0001    1.3856    0.0000 C   0  0  0  0  0  0  0  0  0  0  0  0
    4.8000    2.7712    0.0000 H   0  0  0  0  0  0  0  0  0  0  0  0
    4.8000    0.0000    0.0000 C   0  0  0  0  0  0  0  0  0  0  0  0
    6.4000    0.0000    0.0000 H   0  0  0  0  0  0  0  0  0  0  0  0
    4.0001   -1.3856    0.0000 C   0  0  0  0  0  0  0  0  0  0  0  0
    4.8000   -2.7712    0.0000 O   0  0  0  0  0  0  0  0  0  0  0  0
    6.4000   -2.7712    0.0000 H   0  0  0  0  0  0  0  0  0  0  0  0
    2.4000   -1.3856    0.0000 C   0  0  0  0  0  0  0  0  0  0  0  0
    1.6000   -2.7712    0.0000 H   0  0  0  0  0  0  0  0  0  0  0  0
  1  2  1  0  0  0  0
  2  3  1  0  0  0  0
  2  4  1  0  0  0  0
  2  5  1  0  0  0  0
  5  6  1  0  0  0  0
  5  7  1  0  0  0  0
  5  8  1  0  0  0  0
  1  9  1  0  0  0  0
  9 10  1  0  0  0  0
  9 11  1  0  0  0  0
  9 12  1  0  0  0  0
 12 13  1  0  0  0  0
 12 14  1  0  0  0  0
 12 15  1  0  0  0  0
  1 16  1  0  0  0  0
 16 17  1  0  0  0  0
 17 18  1  0  0  0  0
 17 19  2  0  0  0  0
 19 20  1  0  0  0  0
 19 21  1  0  0  0  0
 21 22  1  0  0  0  0
 21 23  2  0  0  0  0
 23 24  1  0  0  0  0
 24 25  1  0  0  0  0
 23 26  1  0  0  0  0
 26 16  2  0  0  0  0
 26 27  1  0  0  0  0
M  END
> <ChemID>
100419

> <source_casrn>
91-68-9

> <CAS>
91-68-9

> <SMILES>
CCN(CC)c1cccc(O)c1

> <NAME>
Phenol, 3-(diethylamino)-

> <preferred_name>
3-Diethylaminophenol

> <iupac>
3-(diethylamino)phenol

> <MPID>
19498

> <dsstox_substance_id>
DTXSID9025037

> <Canonical_QSARr>
CCN(CC)c1cccc(O)c1

> <InChI_Code_QSARr>
InChI=1S/C10H15NO/c1-3-11(4-2)9-6-5-7-10(12)8-9/h5-8,12H,3-4H2,1-2H3

> <InChI Key_QSARr>
WAVOOWVINKGEHS-UHFFFAOYSA-N

> <Salt_Solvent>
?

> <BP>
276.0

$$$$
100423
  -INDIGO-08031720192D

 20 21  0  0  0  0  0  0  0  0999 V2000
    2.7713    1.6000    0.0000 C   0  0  0  0  0  0  0  0  0  0  0  0
    4.1569    2.4000    0.0000 H   0  0  0  0  0  0  0  0  0  0  0  0
    2.7713    0.0000    0.0000 C   0  0  0  0  0  0  0  0  0  0  0  0
    4.1569   -0.8000    0.0000 C   0  0  0  0  0  0  0  0  0  0  0  0
    5.5426   -1.6000    0.0000 H   0  0  0  0  0  0  0  0  0  0  0  0
    5.5426    0.0000    0.0000 H   0  0  0  0  0  0  0  0  0  0  0  0
    4.1569   -2.4000    0.0000 H   0  0  0  0  0  0  0  0  0  0  0  0
    1.3857   -0.8000    0.0000 C   0  0  0  0  0  0  0  0  0  0  0  0
    1.3857   -2.4000    0.0000 H   0  0  0  0  0  0  0  0  0  0  0  0
   -0.0001    0.0000    0.0000 C   0  0  0  0  0  0  0  0  0  0  0  0
   -0.0001    1.6000    0.0000 C   0  0  0  0  0  0  0  0  0  0  0  0
   -1.3857    2.4000    0.0000 O   0  0  0  0  0  0  0  0  0  0  0  0
   -2.7713    1.6000    0.0000 C   0  0  0  0  0  0  0  0  0  0  0  0
   -2.7713    0.0000    0.0000 C   0  0  0  0  0  0  0  0  0  0  0  0
   -4.1569   -0.8000    0.0000 H   0  0  0  0  0  0  0  0  0  0  0  0
   -1.3857   -0.8000    0.0000 C   0  0  0  0  0  0  0  0  0  0  0  0
   -1.3857   -2.4000    0.0000 H   0  0  0  0  0  0  0  0  0  0  0  0
   -4.1569    2.4000    0.0000 O   0  0  0  0  0  0  0  0  0  0  0  0
    1.3857    2.4000    0.0000 C   0  0  0  0  0  0  0  0  0  0  0  0
    1.3857    4.0000    0.0000 H   0  0  0  0  0  0  0  0  0  0  0  0
  1  2  1  0  0  0  0
  1  3  1  0  0  0  0
  3  4  1  0  0  0  0
  4  5  1  0  0  0  0
  4  6  1  0  0  0  0
  4  7  1  0  0  0  0
  3  8  2  0  0  0  0
  8  9  1  0  0  0  0
  8 10  1  0  0  0  0
 10 11  2  0  0  0  0
 11 12  1  0  0  0  0
 12 13  1  0  0  0  0
 13 14  1  0  0  0  0
 14 15  1  0  0  0  0
 14 16  2  0  0  0  0
 16 10  1  0  0  0  0
 16 17  1  0  0  0  0
 13 18  2  0  0  0  0
 11 19  1  0  0  0  0
 19  1  2  0  0  0  0
 19 20  1  0  0  0  0
M  END
> <ChemID>
100423

> <source_casrn>
92-48-8

> <CAS>
92-48-8

> <SMILES>
Cc1cc2C=CC(=O)Oc2cc1

> <NAME>
2H-1-Benzopyran-2-one, 6-methyl-

> <preferred_name>
6-Methyl coumarin

> <iupac>
6-methyl-2H-chromen-2-one

> <MPID>
19502

> <dsstox_substance_id>
DTXSID9025588

> <Canonical_QSARr>
Cc1cc2C=CC(=O)Oc2cc1

> <InChI_Code_QSARr>
InChI=1S/C10H8O2/c1-7-2-4-9-8(6-7)3-5-10(11)12-9/h2-6H,1H3

> <InChI Key_QSARr>
FXFYOPQLGGEACP-UHFFFAOYSA-N

> <Salt_Solvent>
?

> <BP>
304.0

$$$$
100427
  -INDIGO-08031720192D

 26 27  0  0  0  0  0  0  0  0999 V2000
   -2.4000    1.3857    0.0000 C   0  0  0  0  0  0  0  0  0  0  0  0
   -2.1222    2.9613    0.0000 H   0  0  0  0  0  0  0  0  0  0  0  0
   -3.9035    1.9329    0.0000 H   0  0  0  0  0  0  0  0  0  0  0  0
   -0.8001    1.3857    0.0000 C   0  0  0  0  0  0  0  0  0  0  0  0
   -1.0778    2.9613    0.0000 H   0  0  0  0  0  0  0  0  0  0  0  0
    0.7035    1.9329    0.0000 H   0  0  0  0  0  0  0  0  0  0  0  0
   -0.0001    0.0000    0.0000 N   0  0  0  0  0  0  0  0  0  0  0  0
    1.6001    0.0000    0.0000 C   0  0  0  0  0  0  0  0  0  0  0  0
    2.4001    1.3857    0.0000 C   0  0  0  0  0  0  0  0  0  0  0  0
    1.6001    2.7713    0.0000 H   0  0  0  0  0  0  0  0  0  0  0  0
    4.0000    1.3857    0.0000 C   0  0  0  0  0  0  0  0  0  0  0  0
    4.8000    2.7713    0.0000 H   0  0  0  0  0  0  0  0  0  0  0  0
    4.8000   -0.0000    0.0000 C   0  0  0  0  0  0  0  0  0  0  0  0
    6.4000   -0.0000    0.0000 H   0  0  0  0  0  0  0  0  0  0  0  0
    4.0000   -1.3857    0.0000 C   0  0  0  0  0  0  0  0  0  0  0  0
    4.8000   -2.7713    0.0000 H   0  0  0  0  0  0  0  0  0  0  0  0
    2.4001   -1.3857    0.0000 C   0  0  0  0  0  0  0  0  0  0  0  0
    1.6001   -2.7713    0.0000 H   0  0  0  0  0  0  0  0  0  0  0  0
   -0.8001   -1.3857    0.0000 C   0  0  0  0  0  0  0  0  0  0  0  0
    0.7035   -1.9329    0.0000 H   0  0  0  0  0  0  0  0  0  0  0  0
   -1.0778   -2.9613    0.0000 H   0  0  0  0  0  0  0  0  0  0  0  0
   -2.4000   -1.3857    0.0000 C   0  0  0  0  0  0  0  0  0  0  0  0
   -2.1222   -2.9613    0.0000 H   0  0  0  0  0  0  0  0  0  0  0  0
   -3.9035   -1.9329    0.0000 H   0  0  0  0  0  0  0  0  0  0  0  0
   -3.2000   -0.0000    0.0000 N   0  0  0  0  0  0  0  0  0  0  0  0
   -4.8000    0.0000    0.0000 H   0  0  0  0  0  0  0  0  0  0  0  0
  1  2  1  0  0  0  0
  1  3  1  0  0  0  0
  1  4  1  0  0  0  0
  4  5  1  0  0  0  0
  4  6  1  0  0  0  0
  4  7  1  0  0  0  0
  7  8  1  0  0  0  0
  8  9  1  0  0  0  0
  9 10  1  0  0  0  0
  9 11  2  0  0  0  0
 11 12  1  0  0  0  0
 11 13  1  0  0  0  0
 13 14  1  0  0  0  0
 13 15  2  0  0  0  0
 15 16  1  0  0  0  0
 15 17  1  0  0  0  0
 17  8  2  0  0  0  0
 17 18  1  0  0  0  0
  7 19  1  0  0  0  0
 19 20  1  0  0  0  0
 19 21  1  0  0  0  0
 19 22  1  0  0  0  0
 22 23  1  0  0  0  0
 22 24  1  0  0  0  0
 22 25  1  0  0  0  0
 25  1  1  0  0  0  0
 25 26  1  0  0  0  0
M  END
> <ChemID>
100427

> <source_casrn>
92-54-6

> <CAS>
92-54-6

> <SMILES>
C1CN(CCN1)c1ccccc1

> <NAME>
1-PHENYLPIPERAZINE

> <preferred_name>
Phenylpiperazine

> <iupac>
1-phenylpiperazine

> <MPID>
19506

> <dsstox_substance_id>
DTXSID8057855

> <Canonical_QSARr>
C1CN(CCN1)c1ccccc1

> <InChI_Code_QSARr>
InChI=1S/C10H14N2/c1-2-4-10(5-3-1)12-8-6-11-7-9-12/h1-5,11H,6-9H2

> <InChI Key_QSARr>
YZTJYBJCZXZGCT-UHFFFAOYSA-N

> <Salt_Solvent>
?

> <BP>
286.5

$$$$
100431
  -INDIGO-08031720192D

 23 24  0  0  0  0  0  0  0  0999 V2000
    4.8000    0.0000    0.0000 O   0  0  0  0  0  0  0  0  0  0  0  0
    5.6000    1.3856    0.0000 H   0  0  0  0  0  0  0  0  0  0  0  0
    3.2000    0.0000    0.0000 C   0  0  0  0  0  0  0  0  0  0  0  0
    2.4000    1.3856    0.0000 C   0  0  0  0  0  0  0  0  0  0  0  0
    3.2000    2.7713    0.0000 H   0  0  0  0  0  0  0  0  0  0  0  0
    0.8000    1.3856    0.0000 C   0  0  0  0  0  0  0  0  0  0  0  0
    0.0000    2.7713    0.0000 H   0  0  0  0  0  0  0  0  0  0  0  0
    0.0000    0.0000    0.0000 C   0  0  0  0  0  0  0  0  0  0  0  0
   -1.6000    0.0000    0.0000 C   0  0  0  0  0  0  0  0  0  0  0  0
   -2.4000    1.3856    0.0000 C   0  0  0  0  0  0  0  0  0  0  0  0
   -1.6000    2.7713    0.0000 H   0  0  0  0  0  0  0  0  0  0  0  0
   -4.0000    1.3856    0.0000 C   0  0  0  0  0  0  0  0  0  0  0  0
   -4.8000    2.7713    0.0000 H   0  0  0  0  0  0  0  0  0  0  0  0
   -4.8000   -0.0000    0.0000 C   0  0  0  0  0  0  0  0  0  0  0  0
   -6.4000   -0.0000    0.0000 H   0  0  0  0  0  0  0  0  0  0  0  0
   -4.0000   -1.3856    0.0000 C   0  0  0  0  0  0  0  0  0  0  0  0
   -4.8000   -2.7713    0.0000 H   0  0  0  0  0  0  0  0  0  0  0  0
   -2.4000   -1.3856    0.0000 C   0  0  0  0  0  0  0  0  0  0  0  0
   -1.6000   -2.7713    0.0000 H   0  0  0  0  0  0  0  0  0  0  0  0
    0.8000   -1.3856    0.0000 C   0  0  0  0  0  0  0  0  0  0  0  0
    0.0000   -2.7713    0.0000 H   0  0  0  0  0  0  0  0  0  0  0  0
    2.4000   -1.3856    0.0000 C   0  0  0  0  0  0  0  0  0  0  0  0
    3.2000   -2.7713    0.0000 H   0  0  0  0  0  0  0  0  0  0  0  0
  1  2  1  0  0  0  0
  1  3  1  0  0  0  0
  3  4  1  0  0  0  0
  4  5  1  0  0  0  0
  4  6  2  0  0  0  0
  6  7  1  0  0  0  0
  6  8  1  0  0  0  0
  8  9  1  0  0  0  0
  9 10  1  0  0  0  0
 10 11  1  0  0  0  0
 10 12  2  0  0  0  0
 12 13  1  0  0  0  0
 12 14  1  0  0  0  0
 14 15  1  0  0  0  0
 14 16  2  0  0  0  0
 16 17  1  0  0  0  0
 16 18  1  0  0  0  0
 18  9  2  0  0  0  0
 18 19  1  0  0  0  0
  8 20  2  0  0  0  0
 20 21  1  0  0  0  0
 20 22  1  0  0  0  0
 22  3  2  0  0  0  0
 22 23  1  0  0  0  0
M  END
> <ChemID>
100431

> <source_casrn>
92-69-3

> <CAS>
92-69-3

> <SMILES>
Oc1ccc(cc1)-c1ccccc1

> <NAME>
P-PHENYLPHENOL

> <preferred_name>
4-Phenylphenol

> <iupac>
biphenyl-4-ol

> <MPID>
19510

> <dsstox_substance_id>
DTXSID7021152

> <Canonical_QSARr>
Oc1ccc(cc1)-c1ccccc1

> <InChI_Code_QSARr>
InChI=1S/C12H10O/c13-12-8-6-11(7-9-12)10-4-2-1-3-5-10/h1-9,13H

> <InChI Key_QSARr>
YXVFYQXJAXKLAK-UHFFFAOYSA-N

> <Salt_Solvent>
?

> <BP>
305.0

$$$$
100435
  -INDIGO-08031720192D

 23 25  0  0  0  0  0  0  0  0999 V2000
   -1.3856    0.8000    0.0000 N   0  0  0  0  0  0  0  0  0  0  0  0
   -1.3856    2.4000    0.0000 H   0  0  0  0  0  0  0  0  0  0  0  0
   -2.7712   -0.0000    0.0000 C   0  0  0  0  0  0  0  0  0  0  0  0
   -2.7712   -1.6000    0.0000 C   0  0  0  0  0  0  0  0  0  0  0  0
   -4.1569   -2.4000    0.0000 C   0  0  0  0  0  0  0  0  0  0  0  0
   -4.1569   -4.0000    0.0000 H   0  0  0  0  0  0  0  0  0  0  0  0
   -5.5425   -1.6000    0.0000 C   0  0  0  0  0  0  0  0  0  0  0  0
   -6.9282   -2.4000    0.0000 H   0  0  0  0  0  0  0  0  0  0  0  0
   -5.5425   -0.0000    0.0000 C   0  0  0  0  0  0  0  0  0  0  0  0
   -6.9282    0.8000    0.0000 H   0  0  0  0  0  0  0  0  0  0  0  0
   -4.1569    0.8000    0.0000 C   0  0  0  0  0  0  0  0  0  0  0  0
   -4.1569    2.4000    0.0000 H   0  0  0  0  0  0  0  0  0  0  0  0
   -1.3856   -2.4000    0.0000 S   0  0  0  0  0  0  0  0  0  0  0  0
   -0.0001   -1.6000    0.0000 C   0  0  0  0  0  0  0  0  0  0  0  0
   -0.0001   -0.0000    0.0000 C   0  0  0  0  0  0  0  0  0  0  0  0
    1.3856    0.8000    0.0000 C   0  0  0  0  0  0  0  0  0  0  0  0
    1.3856    2.4000    0.0000 H   0  0  0  0  0  0  0  0  0  0  0  0
    2.7713   -0.0000    0.0000 C   0  0  0  0  0  0  0  0  0  0  0  0
    4.1569    0.8000    0.0000 H   0  0  0  0  0  0  0  0  0  0  0  0
    2.7713   -1.6000    0.0000 C   0  0  0  0  0  0  0  0  0  0  0  0
    4.1569   -2.4000    0.0000 H   0  0  0  0  0  0  0  0  0  0  0  0
    1.3856   -2.4000    0.0000 C   0  0  0  0  0  0  0  0  0  0  0  0
    1.3856   -4.0000    0.0000 H   0  0  0  0  0  0  0  0  0  0  0  0
  1  2  1  0  0  0  0
  1  3  1  0  0  0  0
  3  4  1  0  0  0  0
  4  5  2  0  0  0  0
  5  6  1  0  0  0  0
  5  7  1  0  0  0  0
  7  8  1  0  0  0  0
  7  9  2  0  0  0  0
  9 10  1  0  0  0  0
  9 11  1  0  0  0  0
 11  3  2  0  0  0  0
 11 12  1  0  0  0  0
  4 13  1  0  0  0  0
 13 14  1  0  0  0  0
 14 15  1  0  0  0  0
 15  1  1  0  0  0  0
 15 16  2  0  0  0  0
 16 17  1  0  0  0  0
 16 18  1  0  0  0  0
 18 19  1  0  0  0  0
 18 20  2  0  0  0  0
 20 21  1  0  0  0  0
 20 22  1  0  0  0  0
 22 14  2  0  0  0  0
 22 23  1  0  0  0  0
M  END
> <ChemID>
100435

> <source_casrn>
92-84-2

> <CAS>
92-84-2

> <SMILES>
c1cccc2Nc3ccccc3Sc21

> <NAME>
PHENOTHIAZINE

> <preferred_name>
Phenothiazine

> <iupac>
C12H9NS

> <MPID>
19514

> <dsstox_substance_id>
DTXSID5021126

> <Canonical_QSARr>
c1cccc2Nc3ccccc3Sc21

> <InChI_Code_QSARr>
InChI=1S/C12H9NS/c1-3-7-11-9(5-1)13-10-6-2-4-8-12(10)14-11/h1-8,13H

> <InChI Key_QSARr>
WJFKNYWRSNBZNX-UHFFFAOYSA-N

> <Salt_Solvent>
?

> <BP>
371.0

$$$$
100439
  -INDIGO-08031720192D

 27 28  0  0  0  0  0  0  0  0999 V2000
   -2.4000    1.3856    0.0000 C   0  0  0  0  0  0  0  0  0  0  0  0
   -1.6000    2.7713    0.0000 H   0  0  0  0  0  0  0  0  0  0  0  0
   -1.6000   -0.0000    0.0000 C   0  0  0  0  0  0  0  0  0  0  0  0
    0.0000    0.0000    0.0000 C   0  0  0  0  0  0  0  0  0  0  0  0
    0.8000    1.3856    0.0000 C   0  0  0  0  0  0  0  0  0  0  0  0
    0.0000    2.7713    0.0000 H   0  0  0  0  0  0  0  0  0  0  0  0
    2.4000    1.3856    0.0000 C   0  0  0  0  0  0  0  0  0  0  0  0
    3.2000    2.7713    0.0000 H   0  0  0  0  0  0  0  0  0  0  0  0
    3.2000    0.0000    0.0000 C   0  0  0  0  0  0  0  0  0  0  0  0
    4.8000   -0.0000    0.0000 C   0  0  0  0  0  0  0  0  0  0  0  0
    5.6000    1.3856    0.0000 C   0  0  0  0  0  0  0  0  0  0  0  0
    6.4000    2.7713    0.0000 H   0  0  0  0  0  0  0  0  0  0  0  0
    7.2000    1.3856    0.0000 H   0  0  0  0  0  0  0  0  0  0  0  0
    4.8000    2.7713    0.0000 H   0  0  0  0  0  0  0  0  0  0  0  0
    5.6000   -1.3856    0.0000 O   0  0  0  0  0  0  0  0  0  0  0  0
    2.4000   -1.3856    0.0000 C   0  0  0  0  0  0  0  0  0  0  0  0
    3.2000   -2.7713    0.0000 H   0  0  0  0  0  0  0  0  0  0  0  0
    0.8000   -1.3856    0.0000 C   0  0  0  0  0  0  0  0  0  0  0  0
    0.0000   -2.7713    0.0000 H   0  0  0  0  0  0  0  0  0  0  0  0
   -2.4000   -1.3856    0.0000 C   0  0  0  0  0  0  0  0  0  0  0  0
   -1.6000   -2.7713    0.0000 H   0  0  0  0  0  0  0  0  0  0  0  0
   -4.0000   -1.3856    0.0000 C   0  0  0  0  0  0  0  0  0  0  0  0
   -4.8000   -2.7713    0.0000 H   0  0  0  0  0  0  0  0  0  0  0  0
   -4.8000   -0.0000    0.0000 C   0  0  0  0  0  0  0  0  0  0  0  0
   -6.4000   -0.0000    0.0000 H   0  0  0  0  0  0  0  0  0  0  0  0
   -4.0000    1.3856    0.0000 C   0  0  0  0  0  0  0  0  0  0  0  0
   -4.8000    2.7713    0.0000 H   0  0  0  0  0  0  0  0  0  0  0  0
  1  2  1  0  0  0  0
  1  3  1  0  0  0  0
  3  4  1  0  0  0  0
  4  5  1  0  0  0  0
  5  6  1  0  0  0  0
  5  7  2  0  0  0  0
  7  8  1  0  0  0  0
  7  9  1  0  0  0  0
  9 10  1  0  0  0  0
 10 11  1  0  0  0  0
 11 12  1  0  0  0  0
 11 13  1  0  0  0  0
 11 14  1  0  0  0  0
 10 15  2  0  0  0  0
  9 16  2  0  0  0  0
 16 17  1  0  0  0  0
 16 18  1  0  0  0  0
 18  4  2  0  0  0  0
 18 19  1  0  0  0  0
  3 20  2  0  0  0  0
 20 21  1  0  0  0  0
 20 22  1  0  0  0  0
 22 23  1  0  0  0  0
 22 24  2  0  0  0  0
 24 25  1  0  0  0  0
 24 26  1  0  0  0  0
 26  1  2  0  0  0  0
 26 27  1  0  0  0  0
M  END
> <ChemID>
100439

> <source_casrn>
92-91-1

> <CAS>
92-91-1

> <SMILES>
CC(=O)c1ccc(cc1)-c1ccccc1

> <NAME>
4-ACETYLBIPHENYL

> <preferred_name>
4'-Acetylbiphenyl

> <iupac>
1-(biphenyl-4-yl)ethanone

> <MPID>
19518

> <dsstox_substance_id>
DTXSID6052619

> <Canonical_QSARr>
CC(=O)c1ccc(cc1)-c1ccccc1

> <InChI_Code_QSARr>
InChI=1S/C14H12O/c1-11(15)12-7-9-14(10-8-12)13-5-3-2-4-6-13/h2-10H,1H3

> <InChI Key_QSARr>
QCZZSANNLWPGEA-UHFFFAOYSA-N

> <Salt_Solvent>
?

> <BP>
326.0

$$$$
100443
  -INDIGO-08031720192D

 28 29  0  0  0  0  0  0  0  0999 V2000
   -4.7999    0.0000    0.0000 N   0  0  0  0  0  0  0  0  0  0  0  0
   -3.1999    0.0000    0.0000 C   0  0  0  0  0  0  0  0  0  0  0  0
   -2.3999    1.3856    0.0000 C   0  0  0  0  0  0  0  0  0  0  0  0
   -0.8001    1.3856    0.0000 C   0  0  0  0  0  0  0  0  0  0  0  0
   -0.0001    2.7713    0.0000 H   0  0  0  0  0  0  0  0  0  0  0  0
   -0.0001    0.0000    0.0000 C   0  0  0  0  0  0  0  0  0  0  0  0
    1.6000    0.0000    0.0000 N   0  0  0  0  0  0  0  0  0  0  0  0
    2.4000   -1.3856    0.0000 C   0  0  0  0  0  0  0  0  0  0  0  0
    3.2000   -2.7713    0.0000 H   0  0  0  0  0  0  0  0  0  0  0  0
    4.0000   -1.3856    0.0000 H   0  0  0  0  0  0  0  0  0  0  0  0
    1.6000   -2.7713    0.0000 H   0  0  0  0  0  0  0  0  0  0  0  0
    2.4000    1.3856    0.0000 C   0  0  0  0  0  0  0  0  0  0  0  0
    3.2000    2.7713    0.0000 H   0  0  0  0  0  0  0  0  0  0  0  0
    4.0000    1.3856    0.0000 H   0  0  0  0  0  0  0  0  0  0  0  0
    1.6000    2.7713    0.0000 H   0  0  0  0  0  0  0  0  0  0  0  0
   -0.8001   -1.3856    0.0000 C   0  0  0  0  0  0  0  0  0  0  0  0
   -0.0001   -2.7713    0.0000 H   0  0  0  0  0  0  0  0  0  0  0  0
   -2.4001   -1.3856    0.0000 C   0  0  0  0  0  0  0  0  0  0  0  0
   -3.1999   -2.7713    0.0000 H   0  0  0  0  0  0  0  0  0  0  0  0
   -3.1999    2.7713    0.0000 C   0  0  0  0  0  0  0  0  0  0  0  0
   -2.4001    4.1569    0.0000 H   0  0  0  0  0  0  0  0  0  0  0  0
   -4.7999    2.7713    0.0000 C   0  0  0  0  0  0  0  0  0  0  0  0
   -5.6000    4.1569    0.0000 H   0  0  0  0  0  0  0  0  0  0  0  0
   -5.6000    1.3856    0.0000 C   0  0  0  0  0  0  0  0  0  0  0  0
   -7.2000    1.3856    0.0000 C   0  0  0  0  0  0  0  0  0  0  0  0
   -8.8000    1.3856    0.0000 H   0  0  0  0  0  0  0  0  0  0  0  0
   -8.0000    0.0000    0.0000 H   0  0  0  0  0  0  0  0  0  0  0  0
   -8.0000    2.7713    0.0000 H   0  0  0  0  0  0  0  0  0  0  0  0
  1  2  1  0  0  0  0
  2  3  1  0  0  0  0
  3  4  2  0  0  0  0
  4  5  1  0  0  0  0
  4  6  1  0  0  0  0
  6  7  1  0  0  0  0
  7  8  1  0  0  0  0
  8  9  1  0  0  0  0
  8 10  1  0  0  0  0
  8 11  1  0  0  0  0
  7 12  1  0  0  0  0
 12 13  1  0  0  0  0
 12 14  1  0  0  0  0
 12 15  1  0  0  0  0
  6 16  2  0  0  0  0
 16 17  1  0  0  0  0
 16 18  1  0  0  0  0
 18  2  2  0  0  0  0
 18 19  1  0  0  0  0
  3 20  1  0  0  0  0
 20 21  1  0  0  0  0
 20 22  2  0  0  0  0
 22 23  1  0  0  0  0
 22 24  1  0  0  0  0
 24  1  2  0  0  0  0
 24 25  1  0  0  0  0
 25 26  1  0  0  0  0
 25 27  1  0  0  0  0
 25 28  1  0  0  0  0
M  END
> <ChemID>
100443

> <source_casrn>
92-99-9

> <CAS>
92-99-9

> <SMILES>
Cc1ccc2cc(ccc2[n]1)N(C)C

> <NAME>
6-Quinolinamine, N,N,2-trimethyl-

> <preferred_name>
6-Quinolinamine, N,N,2-trimethyl-

> <iupac>
N,N,2-Trimethylquinolin-6-amine

> <MPID>
19522

> <dsstox_substance_id>
DTXSID6059075

> <Canonical_QSARr>
Cc1ccc2cc(ccc2[n]1)N(C)C

> <InChI_Code_QSARr>
InChI=1S/C12H14N2/c1-9-4-5-10-8-11(14(2)3)6-7-12(10)13-9/h4-8H,1-3H3

> <InChI Key_QSARr>
JGRWYZQONRFIFH-UHFFFAOYSA-N

> <Salt_Solvent>
?

> <BP>
319.0

$$$$
100447
  -INDIGO-08031720192D

 28 28  0  0  0  0  0  0  0  0999 V2000
   -0.0001    0.0000    0.0000 N   0  0  0  0  0  0  0  0  0  0  0  0
    1.6001    0.0000    0.0000 C   0  0  0  0  0  0  0  0  0  0  0  0
    2.4001    1.3856    0.0000 C   0  0  0  0  0  0  0  0  0  0  0  0
    1.6001    2.7713    0.0000 H   0  0  0  0  0  0  0  0  0  0  0  0
    4.0000    1.3856    0.0000 C   0  0  0  0  0  0  0  0  0  0  0  0
    4.8000    2.7713    0.0000 H   0  0  0  0  0  0  0  0  0  0  0  0
    4.8000    0.0000    0.0000 C   0  0  0  0  0  0  0  0  0  0  0  0
    6.4000    0.0000    0.0000 N   0  0  0  0  0  0  0  0  0  0  0  0
    7.2000    1.3856    0.0000 H   0  0  0  0  0  0  0  0  0  0  0  0
    7.2000   -1.3856    0.0000 H   0  0  0  0  0  0  0  0  0  0  0  0
    4.0000   -1.3856    0.0000 C   0  0  0  0  0  0  0  0  0  0  0  0
    4.8000   -2.7712    0.0000 H   0  0  0  0  0  0  0  0  0  0  0  0
    2.4001   -1.3856    0.0000 C   0  0  0  0  0  0  0  0  0  0  0  0
    1.6001   -2.7712    0.0000 H   0  0  0  0  0  0  0  0  0  0  0  0
   -0.8000   -1.3856    0.0000 C   0  0  0  0  0  0  0  0  0  0  0  0
   -0.5912   -2.9720    0.0000 H   0  0  0  0  0  0  0  0  0  0  0  0
    0.4694   -2.3596    0.0000 H   0  0  0  0  0  0  0  0  0  0  0  0
   -2.4000   -1.3856    0.0000 C   0  0  0  0  0  0  0  0  0  0  0  0
   -4.0000   -1.3856    0.0000 H   0  0  0  0  0  0  0  0  0  0  0  0
   -3.2000   -2.7712    0.0000 H   0  0  0  0  0  0  0  0  0  0  0  0
   -1.6000   -2.7712    0.0000 H   0  0  0  0  0  0  0  0  0  0  0  0
   -0.8000    1.3856    0.0000 C   0  0  0  0  0  0  0  0  0  0  0  0
    0.4694    2.3596    0.0000 H   0  0  0  0  0  0  0  0  0  0  0  0
   -0.5912    2.9720    0.0000 H   0  0  0  0  0  0  0  0  0  0  0  0
   -2.4000    1.3856    0.0000 C   0  0  0  0  0  0  0  0  0  0  0  0
   -3.2000    2.7712    0.0000 H   0  0  0  0  0  0  0  0  0  0  0  0
   -4.0000    1.3856    0.0000 H   0  0  0  0  0  0  0  0  0  0  0  0
   -1.6000    2.7712    0.0000 H   0  0  0  0  0  0  0  0  0  0  0  0
  1  2  1  0  0  0  0
  2  3  1  0  0  0  0
  3  4  1  0  0  0  0
  3  5  2  0  0  0  0
  5  6  1  0  0  0  0
  5  7  1  0  0  0  0
  7  8  1  0  0  0  0
  8  9  1  0  0  0  0
  8 10  1  0  0  0  0
  7 11  2  0  0  0  0
 11 12  1  0  0  0  0
 11 13  1  0  0  0  0
 13  2  2  0  0  0  0
 13 14  1  0  0  0  0
  1 15  1  0  0  0  0
 15 16  1  0  0  0  0
 15 17  1  0  0  0  0
 15 18  1  0  0  0  0
 18 19  1  0  0  0  0
 18 20  1  0  0  0  0
 18 21  1  0  0  0  0
  1 22  1  0  0  0  0
 22 23  1  0  0  0  0
 22 24  1  0  0  0  0
 22 25  1  0  0  0  0
 25 26  1  0  0  0  0
 25 27  1  0  0  0  0
 25 28  1  0  0  0  0
M  END
> <ChemID>
100447

> <source_casrn>
93-05-0

> <CAS>
93-05-0

> <SMILES>
CCN(CC)c1ccc(N)cc1

> <NAME>
N,N-DIETHYL-1,4-BENZENEDIAMINE

> <preferred_name>
N,N-Diethylbenzene-1,4-diamine

> <iupac>
N,N-diethylbenzene-1,4-diamine

> <MPID>
19526

> <dsstox_substance_id>
DTXSID2025058

> <Canonical_QSARr>
CCN(CC)c1ccc(N)cc1

> <InChI_Code_QSARr>
InChI=1S/C10H16N2/c1-3-12(4-2)10-7-5-9(11)6-8-10/h5-8H,3-4,11H2,1-2H3

> <InChI Key_QSARr>
QNGVNLMMEQUVQK-UHFFFAOYSA-N

> <Salt_Solvent>
?

> <BP>
261.0

$$$$
100451
  -INDIGO-08031720192D

 25 26  0  0  0  0  0  0  0  0999 V2000
    0.0000   -0.0000    0.0000 C   0  0  0  0  0  0  0  0  0  0  0  0
    1.3857    0.8000    0.0000 C   0  0  0  0  0  0  0  0  0  0  0  0
    1.3857    2.4000    0.0000 H   0  0  0  0  0  0  0  0  0  0  0  0
    2.7712   -0.0000    0.0000 C   0  0  0  0  0  0  0  0  0  0  0  0
    4.1569    0.8000    0.0000 H   0  0  0  0  0  0  0  0  0  0  0  0
    2.7712   -1.6000    0.0000 C   0  0  0  0  0  0  0  0  0  0  0  0
    4.1569   -2.4000    0.0000 H   0  0  0  0  0  0  0  0  0  0  0  0
    1.3857   -2.4000    0.0000 C   0  0  0  0  0  0  0  0  0  0  0  0
    1.3857   -4.0000    0.0000 H   0  0  0  0  0  0  0  0  0  0  0  0
    0.0000   -1.6000    0.0000 C   0  0  0  0  0  0  0  0  0  0  0  0
   -1.3857   -2.4000    0.0000 C   0  0  0  0  0  0  0  0  0  0  0  0
   -1.3857   -4.0000    0.0000 H   0  0  0  0  0  0  0  0  0  0  0  0
   -2.7712   -1.6000    0.0000 C   0  0  0  0  0  0  0  0  0  0  0  0
   -4.1569   -2.4000    0.0000 H   0  0  0  0  0  0  0  0  0  0  0  0
   -2.7712   -0.0000    0.0000 C   0  0  0  0  0  0  0  0  0  0  0  0
   -4.1569    0.8000    0.0000 O   0  0  0  0  0  0  0  0  0  0  0  0
   -5.5426   -0.0000    0.0000 C   0  0  0  0  0  0  0  0  0  0  0  0
   -6.1548   -1.4782    0.0000 H   0  0  0  0  0  0  0  0  0  0  0  0
   -4.9303   -1.4782    0.0000 H   0  0  0  0  0  0  0  0  0  0  0  0
   -6.9281    0.8000    0.0000 C   0  0  0  0  0  0  0  0  0  0  0  0
   -8.3138    1.6000    0.0000 H   0  0  0  0  0  0  0  0  0  0  0  0
   -8.3138   -0.0000    0.0000 H   0  0  0  0  0  0  0  0  0  0  0  0
   -6.9281    2.4000    0.0000 H   0  0  0  0  0  0  0  0  0  0  0  0
   -1.3857    0.8000    0.0000 C   0  0  0  0  0  0  0  0  0  0  0  0
   -1.3857    2.4000    0.0000 H   0  0  0  0  0  0  0  0  0  0  0  0
  1  2  1  0  0  0  0
  2  3  1  0  0  0  0
  2  4  2  0  0  0  0
  4  5  1  0  0  0  0
  4  6  1  0  0  0  0
  6  7  1  0  0  0  0
  6  8  2  0  0  0  0
  8  9  1  0  0  0  0
  8 10  1  0  0  0  0
 10  1  1  0  0  0  0
 10 11  2  0  0  0  0
 11 12  1  0  0  0  0
 11 13  1  0  0  0  0
 13 14  1  0  0  0  0
 13 15  2  0  0  0  0
 15 16  1  0  0  0  0
 16 17  1  0  0  0  0
 17 18  1  0  0  0  0
 17 19  1  0  0  0  0
 17 20  1  0  0  0  0
 20 21  1  0  0  0  0
 20 22  1  0  0  0  0
 20 23  1  0  0  0  0
 15 24  1  0  0  0  0
 24  1  2  0  0  0  0
 24 25  1  0  0  0  0
M  END
> <ChemID>
100451

> <source_casrn>
93-18-5

> <CAS>
93-18-5

> <SMILES>
CCOc1cc2ccccc2cc1

> <NAME>
Naphthalene, 2-ethoxy-

> <preferred_name>
2-Ethoxynaphthalene

> <iupac>
2-ethoxynaphthalene

> <MPID>
19530

> <dsstox_substance_id>
DTXSID2049684

> <Canonical_QSARr>
CCOc1cc2ccccc2cc1

> <InChI_Code_QSARr>
InChI=1S/C12H12O/c1-2-13-12-8-7-10-5-3-4-6-11(10)9-12/h3-9H,2H2,1H3

> <InChI Key_QSARr>
GUMOJENFFHZAFP-UHFFFAOYSA-N

> <Salt_Solvent>
?

> <BP>
282.0

$$$$
100455
  -INDIGO-08031720192D

 18 18  0  0  0  0  0  0  0  0999 V2000
    0.0000    0.0000    0.0000 C   0  0  0  0  0  0  0  0  0  0  0  0
    0.8000    1.3856    0.0000 C   0  0  0  0  0  0  0  0  0  0  0  0
    0.0000    2.7713    0.0000 N   0  0  0  0  0  0  0  0  0  0  0  0
    0.8000    4.1569    0.0000 H   0  0  0  0  0  0  0  0  0  0  0  0
   -1.6000    2.7713    0.0000 H   0  0  0  0  0  0  0  0  0  0  0  0
    2.4000    1.3856    0.0000 C   0  0  0  0  0  0  0  0  0  0  0  0
    3.2001    2.7713    0.0000 H   0  0  0  0  0  0  0  0  0  0  0  0
    3.2001    0.0000    0.0000 C   0  0  0  0  0  0  0  0  0  0  0  0
    4.8000    0.0000    0.0000 H   0  0  0  0  0  0  0  0  0  0  0  0
    2.4000   -1.3856    0.0000 C   0  0  0  0  0  0  0  0  0  0  0  0
    3.2001   -2.7713    0.0000 Cl  0  0  0  0  0  0  0  0  0  0  0  0
    0.8000   -1.3856    0.0000 C   0  0  0  0  0  0  0  0  0  0  0  0
    0.0000   -2.7713    0.0000 H   0  0  0  0  0  0  0  0  0  0  0  0
   -1.6000    0.0000    0.0000 O   0  0  0  0  0  0  0  0  0  0  0  0
   -2.4001   -1.3856    0.0000 C   0  0  0  0  0  0  0  0  0  0  0  0
   -4.0000   -1.3856    0.0000 H   0  0  0  0  0  0  0  0  0  0  0  0
   -3.2000   -2.7713    0.0000 H   0  0  0  0  0  0  0  0  0  0  0  0
   -3.2000    0.0000    0.0000 H   0  0  0  0  0  0  0  0  0  0  0  0
  1  2  1  0  0  0  0
  2  3  1  0  0  0  0
  3  4  1  0  0  0  0
  3  5  1  0  0  0  0
  2  6  2  0  0  0  0
  6  7  1  0  0  0  0
  6  8  1  0  0  0  0
  8  9  1  0  0  0  0
  8 10  2  0  0  0  0
 10 11  1  0  0  0  0
 10 12  1  0  0  0  0
 12  1  2  0  0  0  0
 12 13  1  0  0  0  0
  1 14  1  0  0  0  0
 14 15  1  0  0  0  0
 15 16  1  0  0  0  0
 15 17  1  0  0  0  0
 15 18  1  0  0  0  0
M  END
> <ChemID>
100455

> <source_casrn>
93-50-5

> <CAS>
93-50-5

> <SMILES>
COc1cc(Cl)ccc1N

> <NAME>
Benzenamine, 4-chloro-2-methoxy-

> <preferred_name>
Benzenamine, 4-chloro-2-methoxy-

> <iupac>
4-chloro-2-methoxyaniline

> <MPID>
19534

> <dsstox_substance_id>
DTXSID5059088

> <Canonical_QSARr>
COc1cc(Cl)ccc1N

> <InChI_Code_QSARr>
InChI=1S/C7H8ClNO/c1-10-7-4-5(8)2-3-6(7)9/h2-4H,9H2,1H3

> <InChI Key_QSARr>
WOXLPNAOCCIZGP-UHFFFAOYSA-N

> <Salt_Solvent>
?

> <BP>
260.0

$$$$
100459
  -INDIGO-08031720192D

 20 20  0  0  0  0  0  0  0  0999 V2000
   -0.8000    1.3856    0.0000 C   0  0  0  0  0  0  0  0  0  0  0  0
   -0.0001   -0.0000    0.0000 C   0  0  0  0  0  0  0  0  0  0  0  0
   -0.2089   -1.5863    0.0000 H   0  0  0  0  0  0  0  0  0  0  0  0
   -1.2693   -0.9740    0.0000 H   0  0  0  0  0  0  0  0  0  0  0  0
    1.6000   -0.0000    0.0000 C   0  0  0  0  0  0  0  0  0  0  0  0
    3.2000   -0.0000    0.0000 H   0  0  0  0  0  0  0  0  0  0  0  0
    2.4000   -1.3856    0.0000 H   0  0  0  0  0  0  0  0  0  0  0  0
    2.4000    1.3856    0.0000 H   0  0  0  0  0  0  0  0  0  0  0  0
   -0.0001    2.7713    0.0000 O   0  0  0  0  0  0  0  0  0  0  0  0
   -2.4000    1.3856    0.0000 C   0  0  0  0  0  0  0  0  0  0  0  0
   -3.2000    2.7713    0.0000 C   0  0  0  0  0  0  0  0  0  0  0  0
   -2.4000    4.1569    0.0000 H   0  0  0  0  0  0  0  0  0  0  0  0
   -4.8001    2.7713    0.0000 C   0  0  0  0  0  0  0  0  0  0  0  0
   -5.6000    4.1569    0.0000 H   0  0  0  0  0  0  0  0  0  0  0  0
   -5.6000    1.3856    0.0000 C   0  0  0  0  0  0  0  0  0  0  0  0
   -7.2000    1.3856    0.0000 H   0  0  0  0  0  0  0  0  0  0  0  0
   -4.8001   -0.0000    0.0000 C   0  0  0  0  0  0  0  0  0  0  0  0
   -5.6000   -1.3856    0.0000 H   0  0  0  0  0  0  0  0  0  0  0  0
   -3.2000   -0.0000    0.0000 C   0  0  0  0  0  0  0  0  0  0  0  0
   -2.4000   -1.3856    0.0000 H   0  0  0  0  0  0  0  0  0  0  0  0
  1  2  1  0  0  0  0
  2  3  1  0  0  0  0
  2  4  1  0  0  0  0
  2  5  1  0  0  0  0
  5  6  1  0  0  0  0
  5  7  1  0  0  0  0
  5  8  1  0  0  0  0
  1  9  2  0  0  0  0
  1 10  1  0  0  0  0
 10 11  1  0  0  0  0
 11 12  1  0  0  0  0
 11 13  2  0  0  0  0
 13 14  1  0  0  0  0
 13 15  1  0  0  0  0
 15 16  1  0  0  0  0
 15 17  2  0  0  0  0
 17 18  1  0  0  0  0
 17 19  1  0  0  0  0
 19 10  2  0  0  0  0
 19 20  1  0  0  0  0
M  END
> <ChemID>
100459

> <source_casrn>
93-55-0

> <CAS>
93-55-0

> <SMILES>
CCC(=O)c1ccccc1

> <NAME>
PROPIOPHENONE

> <preferred_name>
1-Phenylpropan-1-one

> <iupac>
1-phenylpropan-1-one

> <MPID>
19538

> <dsstox_substance_id>
DTXSID2044470

> <Canonical_QSARr>
CCC(=O)c1ccccc1

> <InChI_Code_QSARr>
InChI=1S/C9H10O/c1-2-9(10)8-6-4-3-5-7-8/h3-7H,2H2,1H3

> <InChI Key_QSARr>
KRIOVPPHQSLHCZ-UHFFFAOYSA-N

> <Salt_Solvent>
?

> <BP>
217.5

$$$$
100463
  -INDIGO-08031720192D

 19 19  0  0  0  0  0  0  0  0999 V2000
    1.6000    2.7713    0.0000 O   0  0  0  0  0  0  0  0  0  0  0  0
    2.4001    1.3856    0.0000 C   0  0  0  0  0  0  0  0  0  0  0  0
    4.0000    1.3856    0.0000 H   0  0  0  0  0  0  0  0  0  0  0  0
    1.6000   -0.0000    0.0000 N   0  0  0  0  0  0  0  0  0  0  0  0
   -0.0000    0.0000    0.0000 C   0  0  0  0  0  0  0  0  0  0  0  0
   -0.8000    1.3856    0.0000 C   0  0  0  0  0  0  0  0  0  0  0  0
   -0.0000    2.7713    0.0000 H   0  0  0  0  0  0  0  0  0  0  0  0
   -2.4000    1.3856    0.0000 C   0  0  0  0  0  0  0  0  0  0  0  0
   -3.2001    2.7713    0.0000 H   0  0  0  0  0  0  0  0  0  0  0  0
   -3.2001    0.0000    0.0000 C   0  0  0  0  0  0  0  0  0  0  0  0
   -4.8000   -0.0000    0.0000 H   0  0  0  0  0  0  0  0  0  0  0  0
   -2.4000   -1.3856    0.0000 C   0  0  0  0  0  0  0  0  0  0  0  0
   -3.2001   -2.7713    0.0000 H   0  0  0  0  0  0  0  0  0  0  0  0
   -0.8000   -1.3856    0.0000 C   0  0  0  0  0  0  0  0  0  0  0  0
   -0.0000   -2.7713    0.0000 H   0  0  0  0  0  0  0  0  0  0  0  0
    2.4001   -1.3856    0.0000 C   0  0  0  0  0  0  0  0  0  0  0  0
    3.2000   -2.7713    0.0000 H   0  0  0  0  0  0  0  0  0  0  0  0
    4.0000   -1.3856    0.0000 H   0  0  0  0  0  0  0  0  0  0  0  0
    1.6000   -2.7713    0.0000 H   0  0  0  0  0  0  0  0  0  0  0  0
  1  2  2  0  0  0  0
  2  3  1  0  0  0  0
  2  4  1  0  0  0  0
  4  5  1  0  0  0  0
  5  6  1  0  0  0  0
  6  7  1  0  0  0  0
  6  8  2  0  0  0  0
  8  9  1  0  0  0  0
  8 10  1  0  0  0  0
 10 11  1  0  0  0  0
 10 12  2  0  0  0  0
 12 13  1  0  0  0  0
 12 14  1  0  0  0  0
 14  5  2  0  0  0  0
 14 15  1  0  0  0  0
  4 16  1  0  0  0  0
 16 17  1  0  0  0  0
 16 18  1  0  0  0  0
 16 19  1  0  0  0  0
M  END
> <ChemID>
100463

> <source_casrn>
93-61-8

> <CAS>
93-61-8

> <SMILES>
CN(C=O)c1ccccc1

> <NAME>
N-METHYLFORMANILIDE

> <preferred_name>
Formamide, N-methyl-N-phenyl-

> <iupac>
N-Methyl-N-phenylformamide

> <MPID>
19542

> <dsstox_substance_id>
DTXSID0059089

> <Canonical_QSARr>
CN(C=O)c1ccccc1

> <InChI_Code_QSARr>
InChI=1S/C8H9NO/c1-9(7-10)8-5-3-2-4-6-8/h2-7H,1H3

> <InChI Key_QSARr>
JIKUXBYRTXDNIY-UHFFFAOYSA-N

> <Salt_Solvent>
?

> <BP>
243.0

$$$$
100468
  -INDIGO-08031720192D

 27 28  0  0  0  0  0  0  0  0999 V2000
   -4.1569    0.8000    0.0000 C   0  0  0  0  0  0  0  0  0  0  0  0
   -4.1569    2.4000    0.0000 O   0  0  0  0  0  0  0  0  0  0  0  0
   -5.5425   -0.0000    0.0000 C   0  0  0  0  0  0  0  0  0  0  0  0
   -6.9282    0.8000    0.0000 C   0  0  0  0  0  0  0  0  0  0  0  0
   -6.9282    2.4000    0.0000 H   0  0  0  0  0  0  0  0  0  0  0  0
   -8.3139   -0.0000    0.0000 C   0  0  0  0  0  0  0  0  0  0  0  0
   -9.6995    0.8000    0.0000 H   0  0  0  0  0  0  0  0  0  0  0  0
   -8.3137   -1.6000    0.0000 C   0  0  0  0  0  0  0  0  0  0  0  0
   -9.6995   -2.4000    0.0000 H   0  0  0  0  0  0  0  0  0  0  0  0
   -6.9282   -2.4000    0.0000 C   0  0  0  0  0  0  0  0  0  0  0  0
   -6.9282   -4.0000    0.0000 H   0  0  0  0  0  0  0  0  0  0  0  0
   -5.5425   -1.6000    0.0000 C   0  0  0  0  0  0  0  0  0  0  0  0
   -4.1569   -2.4000    0.0000 H   0  0  0  0  0  0  0  0  0  0  0  0
   -2.7712   -0.0000    0.0000 O   0  0  0  0  0  0  0  0  0  0  0  0
   -1.3856    0.8000    0.0000 C   0  0  0  0  0  0  0  0  0  0  0  0
   -1.3856    2.4000    0.0000 O   0  0  0  0  0  0  0  0  0  0  0  0
    0.0001   -0.0000    0.0000 C   0  0  0  0  0  0  0  0  0  0  0  0
    0.0001   -1.6000    0.0000 C   0  0  0  0  0  0  0  0  0  0  0  0
   -1.3856   -2.4000    0.0000 H   0  0  0  0  0  0  0  0  0  0  0  0
    1.3856   -2.4000    0.0000 C   0  0  0  0  0  0  0  0  0  0  0  0
    1.3856   -4.0000    0.0000 H   0  0  0  0  0  0  0  0  0  0  0  0
    2.7714   -1.6000    0.0000 C   0  0  0  0  0  0  0  0  0  0  0  0
    4.1569   -2.4000    0.0000 H   0  0  0  0  0  0  0  0  0  0  0  0
    2.7714   -0.0000    0.0000 C   0  0  0  0  0  0  0  0  0  0  0  0
    4.1569    0.8000    0.0000 H   0  0  0  0  0  0  0  0  0  0  0  0
    1.3856    0.8000    0.0000 C   0  0  0  0  0  0  0  0  0  0  0  0
    1.3856    2.4000    0.0000 H   0  0  0  0  0  0  0  0  0  0  0  0
  1  2  2  0  0  0  0
  1  3  1  0  0  0  0
  3  4  1  0  0  0  0
  4  5  1  0  0  0  0
  4  6  2  0  0  0  0
  6  7  1  0  0  0  0
  6  8  1  0  0  0  0
  8  9  1  0  0  0  0
  8 10  2  0  0  0  0
 10 11  1  0  0  0  0
 10 12  1  0  0  0  0
 12  3  2  0  0  0  0
 12 13  1  0  0  0  0
  1 14  1  0  0  0  0
 14 15  1  0  0  0  0
 15 16  2  0  0  0  0
 15 17  1  0  0  0  0
 17 18  1  0  0  0  0
 18 19  1  0  0  0  0
 18 20  2  0  0  0  0
 20 21  1  0  0  0  0
 20 22  1  0  0  0  0
 22 23  1  0  0  0  0
 22 24  2  0  0  0  0
 24 25  1  0  0  0  0
 24 26  1  0  0  0  0
 26 17  2  0  0  0  0
 26 27  1  0  0  0  0
M  END
> <ChemID>
100468

> <source_casrn>
93-97-0

> <CAS>
93-97-0

> <SMILES>
O=C(OC(=O)c1ccccc1)c1ccccc1

> <NAME>
BENZOIC ACID, ANHYDRIDE

> <preferred_name>
Benzoic anhydride

> <iupac>
benzoic anhydride

> <MPID>
19546

> <dsstox_substance_id>
DTXSID1029122

> <Canonical_QSARr>
O=C(OC(=O)c1ccccc1)c1ccccc1

> <InChI_Code_QSARr>
InChI=1S/C14H10O3/c15-13(11-7-3-1-4-8-11)17-14(16)12-9-5-2-6-10-12/h1-10H

> <InChI Key_QSARr>
CHIHQLCVLOXUJW-UHFFFAOYSA-N

> <Salt_Solvent>
?

> <BP>
360.0

$$$$
100472
  -INDIGO-08031720192D

 25 25  0  0  0  0  0  0  0  0999 V2000
    0.0001   -0.0000    0.0000 C   0  0  0  0  0  0  0  0  0  0  0  0
    1.3856    0.8000    0.0000 C   0  0  0  0  0  0  0  0  0  0  0  0
    2.7714   -0.0000    0.0000 O   0  0  0  0  0  0  0  0  0  0  0  0
    4.1569    0.8000    0.0000 C   0  0  0  0  0  0  0  0  0  0  0  0
    4.7692    2.2782    0.0000 H   0  0  0  0  0  0  0  0  0  0  0  0
    3.5446    2.2782    0.0000 H   0  0  0  0  0  0  0  0  0  0  0  0
    5.5427   -0.0000    0.0000 C   0  0  0  0  0  0  0  0  0  0  0  0
    6.9282   -0.8000    0.0000 H   0  0  0  0  0  0  0  0  0  0  0  0
    6.9282    0.8000    0.0000 H   0  0  0  0  0  0  0  0  0  0  0  0
    5.5427   -1.6000    0.0000 H   0  0  0  0  0  0  0  0  0  0  0  0
    1.3856    2.4000    0.0000 O   0  0  0  0  0  0  0  0  0  0  0  0
    0.0001   -1.6000    0.0000 C   0  0  0  0  0  0  0  0  0  0  0  0
    1.3856   -2.4000    0.0000 H   0  0  0  0  0  0  0  0  0  0  0  0
   -1.3856   -2.4000    0.0000 C   0  0  0  0  0  0  0  0  0  0  0  0
   -1.3856   -4.0000    0.0000 H   0  0  0  0  0  0  0  0  0  0  0  0
   -2.7714   -1.6000    0.0000 C   0  0  0  0  0  0  0  0  0  0  0  0
   -4.1569   -2.4000    0.0000 O   0  0  0  0  0  0  0  0  0  0  0  0
   -5.5425   -1.6000    0.0000 C   0  0  0  0  0  0  0  0  0  0  0  0
   -6.9282   -2.4000    0.0000 H   0  0  0  0  0  0  0  0  0  0  0  0
   -6.9282   -0.8000    0.0000 H   0  0  0  0  0  0  0  0  0  0  0  0
   -5.5427   -3.2000    0.0000 H   0  0  0  0  0  0  0  0  0  0  0  0
   -2.7712   -0.0000    0.0000 C   0  0  0  0  0  0  0  0  0  0  0  0
   -4.1569    0.8000    0.0000 H   0  0  0  0  0  0  0  0  0  0  0  0
   -1.3856    0.8000    0.0000 C   0  0  0  0  0  0  0  0  0  0  0  0
   -1.3856    2.4000    0.0000 H   0  0  0  0  0  0  0  0  0  0  0  0
  1  2  1  0  0  0  0
  2  3  1  0  0  0  0
  3  4  1  0  0  0  0
  4  5  1  0  0  0  0
  4  6  1  0  0  0  0
  4  7  1  0  0  0  0
  7  8  1  0  0  0  0
  7  9  1  0  0  0  0
  7 10  1  0  0  0  0
  2 11  2  0  0  0  0
  1 12  1  0  0  0  0
 12 13  1  0  0  0  0
 12 14  2  0  0  0  0
 14 15  1  0  0  0  0
 14 16  1  0  0  0  0
 16 17  1  0  0  0  0
 17 18  1  0  0  0  0
 18 19  1  0  0  0  0
 18 20  1  0  0  0  0
 18 21  1  0  0  0  0
 16 22  2  0  0  0  0
 22 23  1  0  0  0  0
 22 24  1  0  0  0  0
 24  1  2  0  0  0  0
 24 25  1  0  0  0  0
M  END
> <ChemID>
100472

> <source_casrn>
94-30-4

> <CAS>
94-30-4

> <SMILES>
COc1ccc(cc1)C(=O)OCC

> <NAME>
Benzoic acid, 4-methoxy-, ethyl ester

> <preferred_name>
Benzoic acid, 4-methoxy-, ethyl ester

> <iupac>
Ethyl 4-methoxybenzoate

> <MPID>
19550

> <dsstox_substance_id>
DTXSID4059099

> <Canonical_QSARr>
COc1ccc(cc1)C(=O)OCC

> <InChI_Code_QSARr>
InChI=1S/C10H12O3/c1-3-13-10(11)8-4-6-9(12-2)7-5-8/h4-7H,3H2,1-2H3

> <InChI Key_QSARr>
FHUODBDRWMIBQP-UHFFFAOYSA-N

> <Salt_Solvent>
?

> <BP>
269.5

$$$$
100476
  -INDIGO-08031720192D

 22 23  0  0  0  0  0  0  0  0999 V2000
    4.1570    0.8000    0.0000 C   0  0  0  0  0  0  0  0  0  0  0  0
    5.5426   -0.0000    0.0000 H   0  0  0  0  0  0  0  0  0  0  0  0
    4.1570    2.4000    0.0000 H   0  0  0  0  0  0  0  0  0  0  0  0
    2.7713   -0.0000    0.0000 C   0  0  0  0  0  0  0  0  0  0  0  0
    2.7713   -1.6000    0.0000 H   0  0  0  0  0  0  0  0  0  0  0  0
    1.3857    0.8000    0.0000 C   0  0  0  0  0  0  0  0  0  0  0  0
    1.9979    2.2782    0.0000 H   0  0  0  0  0  0  0  0  0  0  0  0
    0.7734    2.2782    0.0000 H   0  0  0  0  0  0  0  0  0  0  0  0
   -0.0000   -0.0000    0.0000 C   0  0  0  0  0  0  0  0  0  0  0  0
   -0.0000   -1.6000    0.0000 C   0  0  0  0  0  0  0  0  0  0  0  0
    1.3857   -2.4000    0.0000 H   0  0  0  0  0  0  0  0  0  0  0  0
   -1.3856   -2.4000    0.0000 C   0  0  0  0  0  0  0  0  0  0  0  0
   -1.3856   -4.0000    0.0000 H   0  0  0  0  0  0  0  0  0  0  0  0
   -2.7713   -1.6000    0.0000 C   0  0  0  0  0  0  0  0  0  0  0  0
   -2.7713   -0.0000    0.0000 C   0  0  0  0  0  0  0  0  0  0  0  0
   -4.2929    0.4944    0.0000 O   0  0  0  0  0  0  0  0  0  0  0  0
   -5.2334   -0.8000    0.0000 C   0  0  0  0  0  0  0  0  0  0  0  0
   -6.4225   -1.8706    0.0000 H   0  0  0  0  0  0  0  0  0  0  0  0
   -6.4225    0.2706    0.0000 H   0  0  0  0  0  0  0  0  0  0  0  0
   -4.2929   -2.0944    0.0000 O   0  0  0  0  0  0  0  0  0  0  0  0
   -1.3856    0.8000    0.0000 C   0  0  0  0  0  0  0  0  0  0  0  0
   -1.3856    2.4000    0.0000 H   0  0  0  0  0  0  0  0  0  0  0  0
  1  2  1  0  0  0  0
  1  3  1  0  0  0  0
  1  4  2  0  0  0  0
  4  5  1  0  0  0  0
  4  6  1  0  0  0  0
  6  7  1  0  0  0  0
  6  8  1  0  0  0  0
  6  9  1  0  0  0  0
  9 10  1  0  0  0  0
 10 11  1  0  0  0  0
 10 12  2  0  0  0  0
 12 13  1  0  0  0  0
 12 14  1  0  0  0  0
 14 15  2  0  0  0  0
 15 16  1  0  0  0  0
 16 17  1  0  0  0  0
 17 18  1  0  0  0  0
 17 19  1  0  0  0  0
 17 20  1  0  0  0  0
 20 14  1  0  0  0  0
 15 21  1  0  0  0  0
 21  9  2  0  0  0  0
 21 22  1  0  0  0  0
M  END
> <ChemID>
100476

> <source_casrn>
94-59-7

> <CAS>
94-59-7

> <SMILES>
C=CCc1ccc2OCOc2c1

> <NAME>
SAFROLE

> <preferred_name>
Safrole

> <iupac>
5-(prop-2-en-1-yl)-1,3-benzodioxole

> <MPID>
19554

> <dsstox_substance_id>
DTXSID0021254

> <Canonical_QSARr>
C=CCc1ccc2OCOc2c1

> <InChI_Code_QSARr>
InChI=1S/C10H10O2/c1-2-3-8-4-5-9-10(6-8)12-7-11-9/h2,4-6H,1,3,7H2

> <InChI Key_QSARr>
ZMQAAUBTXCXRIC-UHFFFAOYSA-N

> <Salt_Solvent>
?

> <BP>
234.5

$$$$
100480
  -INDIGO-08031720192D

 21 21  0  0  0  0  0  0  0  0999 V2000
    4.0000   -1.3856    0.0000 C   0  0  0  0  0  0  0  0  0  0  0  0
    5.6000   -1.3856    0.0000 H   0  0  0  0  0  0  0  0  0  0  0  0
    4.8000   -2.7713    0.0000 H   0  0  0  0  0  0  0  0  0  0  0  0
    4.8000    0.0000    0.0000 H   0  0  0  0  0  0  0  0  0  0  0  0
    2.3999   -1.3856    0.0000 C   0  0  0  0  0  0  0  0  0  0  0  0
    2.1911   -2.9720    0.0000 H   0  0  0  0  0  0  0  0  0  0  0  0
    1.1307   -2.3596    0.0000 H   0  0  0  0  0  0  0  0  0  0  0  0
    1.6000    0.0000    0.0000 O   0  0  0  0  0  0  0  0  0  0  0  0
    0.0000    0.0000    0.0000 C   0  0  0  0  0  0  0  0  0  0  0  0
   -0.8000    1.3857    0.0000 C   0  0  0  0  0  0  0  0  0  0  0  0
    0.0000    2.7713    0.0000 N   0  0  0  0  0  0  0  0  0  0  0  0
   -0.8000    4.1569    0.0000 H   0  0  0  0  0  0  0  0  0  0  0  0
    1.6000    2.7713    0.0000 H   0  0  0  0  0  0  0  0  0  0  0  0
   -2.4001    1.3857    0.0000 C   0  0  0  0  0  0  0  0  0  0  0  0
   -3.2000    2.7713    0.0000 H   0  0  0  0  0  0  0  0  0  0  0  0
   -3.2000    0.0000    0.0000 C   0  0  0  0  0  0  0  0  0  0  0  0
   -4.8000    0.0000    0.0000 H   0  0  0  0  0  0  0  0  0  0  0  0
   -2.4001   -1.3856    0.0000 C   0  0  0  0  0  0  0  0  0  0  0  0
   -3.2000   -2.7713    0.0000 H   0  0  0  0  0  0  0  0  0  0  0  0
   -0.8000   -1.3856    0.0000 C   0  0  0  0  0  0  0  0  0  0  0  0
    0.0000   -2.7713    0.0000 H   0  0  0  0  0  0  0  0  0  0  0  0
  1  2  1  0  0  0  0
  1  3  1  0  0  0  0
  1  4  1  0  0  0  0
  1  5  1  0  0  0  0
  5  6  1  0  0  0  0
  5  7  1  0  0  0  0
  5  8  1  0  0  0  0
  8  9  1  0  0  0  0
  9 10  1  0  0  0  0
 10 11  1  0  0  0  0
 11 12  1  0  0  0  0
 11 13  1  0  0  0  0
 10 14  2  0  0  0  0
 14 15  1  0  0  0  0
 14 16  1  0  0  0  0
 16 17  1  0  0  0  0
 16 18  2  0  0  0  0
 18 19  1  0  0  0  0
 18 20  1  0  0  0  0
 20  9  2  0  0  0  0
 20 21  1  0  0  0  0
M  END
> <ChemID>
100480

> <source_casrn>
94-70-2

> <CAS>
94-70-2

> <SMILES>
CCOc1ccccc1N

> <NAME>
2-ETHOXYANILINE

> <preferred_name>
2-Ethoxyaniline

> <iupac>
2-ethoxyaniline

> <MPID>
19558

> <dsstox_substance_id>
DTXSID5025863

> <Canonical_QSARr>
CCOc1ccccc1N

> <InChI_Code_QSARr>
InChI=1S/C8H11NO/c1-2-10-8-6-4-3-5-7(8)9/h3-6H,2,9H2,1H3

> <InChI Key_QSARr>
ULHFFAFDSSHFDA-UHFFFAOYSA-N

> <Salt_Solvent>
?

> <BP>
232.5

$$$$
100484
  -INDIGO-08031720192D

 28 27  0  0  0  0  0  0  0  0999 V2000
   -0.0001    2.7713    0.0000 O   0  0  0  0  0  0  0  0  0  0  0  0
    0.7999    4.1569    0.0000 H   0  0  0  0  0  0  0  0  0  0  0  0
    0.7999    1.3856    0.0000 C   0  0  0  0  0  0  0  0  0  0  0  0
    2.2783    1.9980    0.0000 H   0  0  0  0  0  0  0  0  0  0  0  0
    2.2783    0.7734    0.0000 H   0  0  0  0  0  0  0  0  0  0  0  0
   -0.0001   -0.0000    0.0000 C   0  0  0  0  0  0  0  0  0  0  0  0
   -0.8001   -1.3857    0.0000 H   0  0  0  0  0  0  0  0  0  0  0  0
   -1.5035    0.5472    0.0000 C   0  0  0  0  0  0  0  0  0  0  0  0
   -0.9563    2.0507    0.0000 H   0  0  0  0  0  0  0  0  0  0  0  0
   -2.0507   -0.9563    0.0000 O   0  0  0  0  0  0  0  0  0  0  0  0
   -1.2507   -2.3419    0.0000 H   0  0  0  0  0  0  0  0  0  0  0  0
   -3.0071    1.0945    0.0000 C   0  0  0  0  0  0  0  0  0  0  0  0
   -2.6608    2.6565    0.0000 H   0  0  0  0  0  0  0  0  0  0  0  0
   -3.8667    2.4439    0.0000 H   0  0  0  0  0  0  0  0  0  0  0  0
   -4.2327    0.0660    0.0000 C   0  0  0  0  0  0  0  0  0  0  0  0
   -4.5790   -1.4960    0.0000 H   0  0  0  0  0  0  0  0  0  0  0  0
   -3.3731   -1.2834    0.0000 H   0  0  0  0  0  0  0  0  0  0  0  0
   -5.7361    0.6132    0.0000 C   0  0  0  0  0  0  0  0  0  0  0  0
   -7.2397    1.1604    0.0000 H   0  0  0  0  0  0  0  0  0  0  0  0
   -6.9619   -0.4152    0.0000 H   0  0  0  0  0  0  0  0  0  0  0  0
   -6.0141    2.1890    0.0000 H   0  0  0  0  0  0  0  0  0  0  0  0
    1.3857   -0.8000    0.0000 C   0  0  0  0  0  0  0  0  0  0  0  0
    1.9978   -2.2783    0.0000 H   0  0  0  0  0  0  0  0  0  0  0  0
    0.7733   -2.2783    0.0000 H   0  0  0  0  0  0  0  0  0  0  0  0
    2.8891   -0.2528    0.0000 C   0  0  0  0  0  0  0  0  0  0  0  0
    4.3927    0.2945    0.0000 H   0  0  0  0  0  0  0  0  0  0  0  0
    4.1149   -1.2812    0.0000 H   0  0  0  0  0  0  0  0  0  0  0  0
    3.1670    1.3230    0.0000 H   0  0  0  0  0  0  0  0  0  0  0  0
  1  2  1  0  0  0  0
  1  3  1  0  0  0  0
  3  4  1  0  0  0  0
  3  5  1  0  0  0  0
  3  6  1  0  0  0  0
  6  7  1  0  0  0  0
  6  8  1  0  0  0  0
  8  9  1  0  0  0  0
  8 10  1  0  0  0  0
 10 11  1  0  0  0  0
  8 12  1  0  0  0  0
 12 13  1  0  0  0  0
 12 14  1  0  0  0  0
 12 15  1  0  0  0  0
 15 16  1  0  0  0  0
 15 17  1  0  0  0  0
 15 18  1  0  0  0  0
 18 19  1  0  0  0  0
 18 20  1  0  0  0  0
 18 21  1  0  0  0  0
  6 22  1  0  0  0  0
 22 23  1  0  0  0  0
 22 24  1  0  0  0  0
 22 25  1  0  0  0  0
 25 26  1  0  0  0  0
 25 27  1  0  0  0  0
 25 28  1  0  0  0  0
M  END
> <ChemID>
100484

> <source_casrn>
94-96-2

> <CAS>
94-96-2

> <SMILES>
CCC(CO)C(O)CCC

> <NAME>
2-ETHYL-1,3-HEXANDIOL

> <preferred_name>
2-Ethyl-1,3-hexanediol

> <iupac>
2-ethylhexane-1,3-diol

> <MPID>
19562

> <dsstox_substance_id>
DTXSID4025292

> <Canonical_QSARr>
CCC(CO)C(O)CCC

> <InChI_Code_QSARr>
InChI=1S/C8H18O2/c1-3-5-8(10)7(4-2)6-9/h7-10H,3-6H2,1-2H3

> <InChI Key_QSARr>
RWLALWYNXFYRGW-UHFFFAOYSA-N

> <Salt_Solvent>
?

> <BP>
244.0

$$$$
100488
  -INDIGO-08031720192D

 15 16  0  0  0  0  0  0  0  0999 V2000
   -1.5217   -2.0944    0.0000 S   0  0  0  0  0  0  0  0  0  0  0  0
    0.0000   -1.6000    0.0000 C   0  0  0  0  0  0  0  0  0  0  0  0
    0.0000   -0.0000    0.0000 C   0  0  0  0  0  0  0  0  0  0  0  0
    1.3856    0.8000    0.0000 C   0  0  0  0  0  0  0  0  0  0  0  0
    1.3856    2.4000    0.0000 H   0  0  0  0  0  0  0  0  0  0  0  0
    2.7713   -0.0000    0.0000 C   0  0  0  0  0  0  0  0  0  0  0  0
    4.1569    0.8000    0.0000 H   0  0  0  0  0  0  0  0  0  0  0  0
    2.7713   -1.6000    0.0000 C   0  0  0  0  0  0  0  0  0  0  0  0
    4.1569   -2.4000    0.0000 H   0  0  0  0  0  0  0  0  0  0  0  0
    1.3856   -2.4000    0.0000 C   0  0  0  0  0  0  0  0  0  0  0  0
    1.3856   -4.0000    0.0000 H   0  0  0  0  0  0  0  0  0  0  0  0
   -1.5217    0.4944    0.0000 C   0  0  0  0  0  0  0  0  0  0  0  0
   -2.0161    2.0161    0.0000 H   0  0  0  0  0  0  0  0  0  0  0  0
   -2.4621   -0.8000    0.0000 C   0  0  0  0  0  0  0  0  0  0  0  0
   -4.0621   -0.8000    0.0000 H   0  0  0  0  0  0  0  0  0  0  0  0
  1  2  1  0  0  0  0
  2  3  1  0  0  0  0
  3  4  2  0  0  0  0
  4  5  1  0  0  0  0
  4  6  1  0  0  0  0
  6  7  1  0  0  0  0
  6  8  2  0  0  0  0
  8  9  1  0  0  0  0
  8 10  1  0  0  0  0
 10  2  2  0  0  0  0
 10 11  1  0  0  0  0
  3 12  1  0  0  0  0
 12 13  1  0  0  0  0
 12 14  2  0  0  0  0
 14  1  1  0  0  0  0
 14 15  1  0  0  0  0
M  END
> <ChemID>
100488

> <source_casrn>
95-15-8

> <CAS>
95-15-8

> <SMILES>
c1cccc2[s]ccc21

> <NAME>
BENZO(B)THIOPHENE

> <preferred_name>
Benzothiophene

> <iupac>
1-benzothiophene

> <MPID>
19566

> <dsstox_substance_id>
DTXSID2052736

> <Canonical_QSARr>
c1cccc2[s]ccc21

> <InChI_Code_QSARr>
InChI=1S/C8H6S/c1-2-4-8-7(3-1)5-6-9-8/h1-6H

> <InChI Key_QSARr>
FCEHBMOGCRZNNI-UHFFFAOYSA-N

> <Salt_Solvent>
?

> <BP>
221.0

$$$$
100492
  -INDIGO-08031720192D

 15 15  0  0  0  0  0  0  0  0999 V2000
    0.0000   -0.0000    0.0000 C   0  0  0  0  0  0  0  0  0  0  0  0
   -0.8001    1.3856    0.0000 C   0  0  0  0  0  0  0  0  0  0  0  0
    0.0000    2.7713    0.0000 Br  0  0  0  0  0  0  0  0  0  0  0  0
   -2.4001    1.3856    0.0000 C   0  0  0  0  0  0  0  0  0  0  0  0
   -3.2000    2.7713    0.0000 H   0  0  0  0  0  0  0  0  0  0  0  0
   -3.2000   -0.0000    0.0000 C   0  0  0  0  0  0  0  0  0  0  0  0
   -4.8000   -0.0000    0.0000 H   0  0  0  0  0  0  0  0  0  0  0  0
   -2.4001   -1.3856    0.0000 C   0  0  0  0  0  0  0  0  0  0  0  0
   -3.2000   -2.7713    0.0000 H   0  0  0  0  0  0  0  0  0  0  0  0
   -0.8001   -1.3856    0.0000 C   0  0  0  0  0  0  0  0  0  0  0  0
    0.0000   -2.7713    0.0000 H   0  0  0  0  0  0  0  0  0  0  0  0
    1.6000   -0.0000    0.0000 C   0  0  0  0  0  0  0  0  0  0  0  0
    3.2000   -0.0000    0.0000 H   0  0  0  0  0  0  0  0  0  0  0  0
    2.4001   -1.3856    0.0000 H   0  0  0  0  0  0  0  0  0  0  0  0
    2.4001    1.3856    0.0000 H   0  0  0  0  0  0  0  0  0  0  0  0
  1  2  1  0  0  0  0
  2  3  1  0  0  0  0
  2  4  2  0  0  0  0
  4  5  1  0  0  0  0
  4  6  1  0  0  0  0
  6  7  1  0  0  0  0
  6  8  2  0  0  0  0
  8  9  1  0  0  0  0
  8 10  1  0  0  0  0
 10  1  2  0  0  0  0
 10 11  1  0  0  0  0
  1 12  1  0  0  0  0
 12 13  1  0  0  0  0
 12 14  1  0  0  0  0
 12 15  1  0  0  0  0
M  END
> <ChemID>
100492

> <source_casrn>
95-46-5

> <CAS>
95-46-5

> <SMILES>
Cc1ccccc1Br

> <NAME>
O-BROMOTOLUENE

> <preferred_name>
2-Bromotoluene

> <iupac>
1-bromo-2-methylbenzene

> <MPID>
19570

> <dsstox_substance_id>
DTXSID2024660

> <Canonical_QSARr>
Cc1ccccc1Br

> <InChI_Code_QSARr>
InChI=1S/C7H7Br/c1-6-4-2-3-5-7(6)8/h2-5H,1H3

> <InChI Key_QSARr>
QSSXJPIWXQTSIX-UHFFFAOYSA-N

> <Salt_Solvent>
?

> <BP>
181.7

$$$$
100496
  -INDIGO-08031720192D

 12 12  0  0  0  0  0  0  0  0999 V2000
    0.8000    1.3856    0.0000 Cl  0  0  0  0  0  0  0  0  0  0  0  0
   -0.0000   -0.0000    0.0000 C   0  0  0  0  0  0  0  0  0  0  0  0
    0.8000   -1.3857    0.0000 C   0  0  0  0  0  0  0  0  0  0  0  0
    2.4000   -1.3857    0.0000 Cl  0  0  0  0  0  0  0  0  0  0  0  0
   -0.0000   -2.7713    0.0000 C   0  0  0  0  0  0  0  0  0  0  0  0
    0.8000   -4.1569    0.0000 H   0  0  0  0  0  0  0  0  0  0  0  0
   -1.6000   -2.7713    0.0000 C   0  0  0  0  0  0  0  0  0  0  0  0
   -2.4000   -4.1569    0.0000 H   0  0  0  0  0  0  0  0  0  0  0  0
   -2.4000   -1.3856    0.0000 C   0  0  0  0  0  0  0  0  0  0  0  0
   -4.0000   -1.3856    0.0000 H   0  0  0  0  0  0  0  0  0  0  0  0
   -1.6000   -0.0000    0.0000 C   0  0  0  0  0  0  0  0  0  0  0  0
   -2.4000    1.3856    0.0000 H   0  0  0  0  0  0  0  0  0  0  0  0
  1  2  1  0  0  0  0
  2  3  1  0  0  0  0
  3  4  1  0  0  0  0
  3  5  2  0  0  0  0
  5  6  1  0  0  0  0
  5  7  1  0  0  0  0
  7  8  1  0  0  0  0
  7  9  2  0  0  0  0
  9 10  1  0  0  0  0
  9 11  1  0  0  0  0
 11  2  2  0  0  0  0
 11 12  1  0  0  0  0
M  END
> <ChemID>
100496

> <source_casrn>
95-50-1

> <CAS>
95-50-1

> <SMILES>
Clc1ccccc1Cl

> <NAME>
1,2-DICHLOROBENZENE

> <preferred_name>
1,2-Dichlorobenzene

> <iupac>
1,2-dichlorobenzene

> <MPID>
19574

> <dsstox_substance_id>
DTXSID6020430

> <Canonical_QSARr>
Clc1ccccc1Cl

> <InChI_Code_QSARr>
InChI=1S/C6H4Cl2/c7-5-3-1-2-4-6(5)8/h1-4H

> <InChI Key_QSARr>
RFFLAFLAYFXFSW-UHFFFAOYSA-N

> <Salt_Solvent>
?

> <BP>
180.0

$$$$
100500
  -INDIGO-08031720192D

 16 16  0  0  0  0  0  0  0  0999 V2000
   -1.3856    0.8000    0.0000 N   0  0  0  0  0  0  0  0  0  0  0  0
   -1.3856    2.4000    0.0000 H   0  0  0  0  0  0  0  0  0  0  0  0
   -2.7713   -0.0000    0.0000 H   0  0  0  0  0  0  0  0  0  0  0  0
    0.0000   -0.0000    0.0000 C   0  0  0  0  0  0  0  0  0  0  0  0
    0.0000   -1.6000    0.0000 C   0  0  0  0  0  0  0  0  0  0  0  0
   -1.3856   -2.4000    0.0000 N   0  0  0  0  0  0  0  0  0  0  0  0
   -1.3856   -4.0000    0.0000 H   0  0  0  0  0  0  0  0  0  0  0  0
   -2.7713   -1.6000    0.0000 H   0  0  0  0  0  0  0  0  0  0  0  0
    1.3856   -2.4000    0.0000 C   0  0  0  0  0  0  0  0  0  0  0  0
    1.3856   -4.0000    0.0000 H   0  0  0  0  0  0  0  0  0  0  0  0
    2.7713   -1.6000    0.0000 C   0  0  0  0  0  0  0  0  0  0  0  0
    4.1569   -2.4000    0.0000 H   0  0  0  0  0  0  0  0  0  0  0  0
    2.7713   -0.0000    0.0000 C   0  0  0  0  0  0  0  0  0  0  0  0
    4.1569    0.8000    0.0000 H   0  0  0  0  0  0  0  0  0  0  0  0
    1.3856    0.8000    0.0000 C   0  0  0  0  0  0  0  0  0  0  0  0
    1.3856    2.4000    0.0000 H   0  0  0  0  0  0  0  0  0  0  0  0
  1  2  1  0  0  0  0
  1  3  1  0  0  0  0
  1  4  1  0  0  0  0
  4  5  1  0  0  0  0
  5  6  1  0  0  0  0
  6  7  1  0  0  0  0
  6  8  1  0  0  0  0
  5  9  2  0  0  0  0
  9 10  1  0  0  0  0
  9 11  1  0  0  0  0
 11 12  1  0  0  0  0
 11 13  2  0  0  0  0
 13 14  1  0  0  0  0
 13 15  1  0  0  0  0
 15  4  2  0  0  0  0
 15 16  1  0  0  0  0
M  END
> <ChemID>
100500

> <source_casrn>
95-54-5

> <CAS>
95-54-5

> <SMILES>
Nc1ccccc1N

> <NAME>
1,2-BENZENEDIAMINE

> <preferred_name>
1,2-Phenylenediamine

> <iupac>
benzene-1,2-diamine

> <MPID>
19578

> <dsstox_substance_id>
DTXSID3025881

> <Canonical_QSARr>
Nc1ccccc1N

> <InChI_Code_QSARr>
InChI=1S/C6H8N2/c7-5-3-1-2-4-6(5)8/h1-4H,7-8H2

> <InChI Key_QSARr>
GEYOCULIXLDCMW-UHFFFAOYSA-N

> <Salt_Solvent>
?

> <BP>
257.0

$$$$
100504
  -INDIGO-08031720192D

 20 20  0  0  0  0  0  0  0  0999 V2000
    1.3857    0.8000    0.0000 C   0  0  0  0  0  0  0  0  0  0  0  0
    2.7713    1.6000    0.0000 H   0  0  0  0  0  0  0  0  0  0  0  0
    1.3857    2.4000    0.0000 H   0  0  0  0  0  0  0  0  0  0  0  0
    2.7713   -0.0000    0.0000 H   0  0  0  0  0  0  0  0  0  0  0  0
    0.0000   -0.0000    0.0000 C   0  0  0  0  0  0  0  0  0  0  0  0
   -1.3857    0.8000    0.0000 C   0  0  0  0  0  0  0  0  0  0  0  0
   -1.3857    2.4000    0.0000 H   0  0  0  0  0  0  0  0  0  0  0  0
   -2.7713   -0.0000    0.0000 C   0  0  0  0  0  0  0  0  0  0  0  0
   -4.1570    0.8000    0.0000 N   0  0  0  0  0  0  0  0  0  0  0  0
   -5.5426   -0.0000    0.0000 H   0  0  0  0  0  0  0  0  0  0  0  0
   -4.1569    2.4000    0.0000 H   0  0  0  0  0  0  0  0  0  0  0  0
   -2.7713   -1.6000    0.0000 C   0  0  0  0  0  0  0  0  0  0  0  0
   -4.1569   -2.4000    0.0000 H   0  0  0  0  0  0  0  0  0  0  0  0
   -1.3856   -2.4000    0.0000 C   0  0  0  0  0  0  0  0  0  0  0  0
   -1.3856   -4.0000    0.0000 H   0  0  0  0  0  0  0  0  0  0  0  0
    0.0000   -1.6000    0.0000 C   0  0  0  0  0  0  0  0  0  0  0  0
    1.3857   -2.4000    0.0000 C   0  0  0  0  0  0  0  0  0  0  0  0
    2.7713   -3.2000    0.0000 H   0  0  0  0  0  0  0  0  0  0  0  0
    1.3857   -4.0000    0.0000 H   0  0  0  0  0  0  0  0  0  0  0  0
    2.7713   -1.6000    0.0000 H   0  0  0  0  0  0  0  0  0  0  0  0
  1  2  1  0  0  0  0
  1  3  1  0  0  0  0
  1  4  1  0  0  0  0
  1  5  1  0  0  0  0
  5  6  1  0  0  0  0
  6  7  1  0  0  0  0
  6  8  2  0  0  0  0
  8  9  1  0  0  0  0
  9 10  1  0  0  0  0
  9 11  1  0  0  0  0
  8 12  1  0  0  0  0
 12 13  1  0  0  0  0
 12 14  2  0  0  0  0
 14 15  1  0  0  0  0
 14 16  1  0  0  0  0
 16  5  2  0  0  0  0
 16 17  1  0  0  0  0
 17 18  1  0  0  0  0
 17 19  1  0  0  0  0
 17 20  1  0  0  0  0
M  END
> <ChemID>
100504

> <source_casrn>
95-64-7

> <CAS>
95-64-7

> <SMILES>
Cc1cc(N)ccc1C

> <NAME>
3,4-XYLIDINE

> <preferred_name>
3,4-Dimethylaniline

> <iupac>
3,4-dimethylaniline

> <MPID>
19582

> <dsstox_substance_id>
DTXSID3026308

> <Canonical_QSARr>
Cc1cc(N)ccc1C

> <InChI_Code_QSARr>
InChI=1S/C8H11N/c1-6-3-4-8(9)5-7(6)2/h3-5H,9H2,1-2H3

> <InChI Key_QSARr>
DOLQYFPDPKPQSS-UHFFFAOYSA-N

> <Salt_Solvent>
?

> <BP>
228.0

$$$$
100508
  -INDIGO-08031720192D

 17 17  0  0  0  0  0  0  0  0999 V2000
   -1.3856    2.4000    0.0000 N   0  0  0  0  0  0  0  0  0  0  0  0
   -1.3856    4.0000    0.0000 H   0  0  0  0  0  0  0  0  0  0  0  0
   -2.7713    1.6000    0.0000 H   0  0  0  0  0  0  0  0  0  0  0  0
    0.0000    1.6000    0.0000 C   0  0  0  0  0  0  0  0  0  0  0  0
    0.0000    0.0000    0.0000 C   0  0  0  0  0  0  0  0  0  0  0  0
   -1.3856   -0.8000    0.0000 C   0  0  0  0  0  0  0  0  0  0  0  0
   -2.7713   -1.6000    0.0000 H   0  0  0  0  0  0  0  0  0  0  0  0
   -1.3856   -2.4000    0.0000 H   0  0  0  0  0  0  0  0  0  0  0  0
   -2.7713    0.0000    0.0000 H   0  0  0  0  0  0  0  0  0  0  0  0
    1.3856   -0.8000    0.0000 C   0  0  0  0  0  0  0  0  0  0  0  0
    1.3856   -2.4000    0.0000 H   0  0  0  0  0  0  0  0  0  0  0  0
    2.7713    0.0000    0.0000 C   0  0  0  0  0  0  0  0  0  0  0  0
    4.1569   -0.8000    0.0000 Cl  0  0  0  0  0  0  0  0  0  0  0  0
    2.7713    1.6000    0.0000 C   0  0  0  0  0  0  0  0  0  0  0  0
    4.1569    2.4000    0.0000 H   0  0  0  0  0  0  0  0  0  0  0  0
    1.3856    2.4000    0.0000 C   0  0  0  0  0  0  0  0  0  0  0  0
    1.3856    4.0000    0.0000 H   0  0  0  0  0  0  0  0  0  0  0  0
  1  2  1  0  0  0  0
  1  3  1  0  0  0  0
  1  4  1  0  0  0  0
  4  5  1  0  0  0  0
  5  6  1  0  0  0  0
  6  7  1  0  0  0  0
  6  8  1  0  0  0  0
  6  9  1  0  0  0  0
  5 10  2  0  0  0  0
 10 11  1  0  0  0  0
 10 12  1  0  0  0  0
 12 13  1  0  0  0  0
 12 14  2  0  0  0  0
 14 15  1  0  0  0  0
 14 16  1  0  0  0  0
 16  4  2  0  0  0  0
 16 17  1  0  0  0  0
M  END
> <ChemID>
100508

> <source_casrn>
95-69-2

> <CAS>
95-69-2

> <SMILES>
Cc1cc(Cl)ccc1N

> <NAME>
2-METHYL-4-CHLOROANILINE

> <preferred_name>
4-Chloro-2-methylaniline

> <iupac>
4-chloro-2-methylaniline

> <MPID>
19586

> <dsstox_substance_id>
DTXSID1041508

> <Canonical_QSARr>
Cc1cc(Cl)ccc1N

> <InChI_Code_QSARr>
InChI=1S/C7H8ClN/c1-5-4-6(8)2-3-7(5)9/h2-4H,9H2,1H3

> <InChI Key_QSARr>
CXNVOWPRHWWCQR-UHFFFAOYSA-N

> <Salt_Solvent>
?

> <BP>
244.0

$$$$
100512
  -INDIGO-08031720192D

 15 15  0  0  0  0  0  0  0  0999 V2000
    2.4001    1.3856    0.0000 C   0  0  0  0  0  0  0  0  0  0  0  0
    3.2000    2.7713    0.0000 H   0  0  0  0  0  0  0  0  0  0  0  0
    0.7999    1.3856    0.0000 C   0  0  0  0  0  0  0  0  0  0  0  0
    0.0000    2.7713    0.0000 Cl  0  0  0  0  0  0  0  0  0  0  0  0
    0.0000    0.0000    0.0000 C   0  0  0  0  0  0  0  0  0  0  0  0
   -1.6000    0.0000    0.0000 C   0  0  0  0  0  0  0  0  0  0  0  0
   -3.2000    0.0000    0.0000 H   0  0  0  0  0  0  0  0  0  0  0  0
   -2.4001   -1.3856    0.0000 H   0  0  0  0  0  0  0  0  0  0  0  0
   -2.4001    1.3856    0.0000 H   0  0  0  0  0  0  0  0  0  0  0  0
    0.8001   -1.3856    0.0000 C   0  0  0  0  0  0  0  0  0  0  0  0
    0.0000   -2.7713    0.0000 H   0  0  0  0  0  0  0  0  0  0  0  0
    2.4001   -1.3856    0.0000 C   0  0  0  0  0  0  0  0  0  0  0  0
    3.2000   -2.7713    0.0000 H   0  0  0  0  0  0  0  0  0  0  0  0
    3.2000   -0.0000    0.0000 C   0  0  0  0  0  0  0  0  0  0  0  0
    4.8000    0.0000    0.0000 Cl  0  0  0  0  0  0  0  0  0  0  0  0
  1  2  1  0  0  0  0
  1  3  1  0  0  0  0
  3  4  1  0  0  0  0
  3  5  2  0  0  0  0
  5  6  1  0  0  0  0
  6  7  1  0  0  0  0
  6  8  1  0  0  0  0
  6  9  1  0  0  0  0
  5 10  1  0  0  0  0
 10 11  1  0  0  0  0
 10 12  2  0  0  0  0
 12 13  1  0  0  0  0
 12 14  1  0  0  0  0
 14  1  2  0  0  0  0
 14 15  1  0  0  0  0
M  END
> <ChemID>
100512

> <source_casrn>
95-73-8

> <CAS>
95-73-8

> <SMILES>
Cc1ccc(Cl)cc1Cl

> <NAME>
2,4-DICHLOROTOLUENE

> <preferred_name>
2,4-Dichlorotoluene

> <iupac>
2,4-dichloro-1-methylbenzene

> <MPID>
19590

> <dsstox_substance_id>
DTXSID5040702

> <Canonical_QSARr>
Cc1ccc(Cl)cc1Cl

> <InChI_Code_QSARr>
InChI=1S/C7H6Cl2/c1-5-2-3-6(8)4-7(5)9/h2-4H,1H3

> <InChI Key_QSARr>
FUNUTBJJKQIVSY-UHFFFAOYSA-N

> <Salt_Solvent>
?

> <BP>
201.0

$$$$
100516
  -INDIGO-08031720192D

 13 13  0  0  0  0  0  0  0  0999 V2000
   -4.0000   -1.3857    0.0000 Cl  0  0  0  0  0  0  0  0  0  0  0  0
   -2.4000   -1.3857    0.0000 C   0  0  0  0  0  0  0  0  0  0  0  0
   -1.6000   -0.0000    0.0000 C   0  0  0  0  0  0  0  0  0  0  0  0
   -2.4000    1.3856    0.0000 H   0  0  0  0  0  0  0  0  0  0  0  0
   -0.0000   -0.0000    0.0000 C   0  0  0  0  0  0  0  0  0  0  0  0
    0.8000    1.3856    0.0000 O   0  0  0  0  0  0  0  0  0  0  0  0
    2.4000    1.3856    0.0000 H   0  0  0  0  0  0  0  0  0  0  0  0
    0.8000   -1.3857    0.0000 C   0  0  0  0  0  0  0  0  0  0  0  0
    2.4000   -1.3857    0.0000 H   0  0  0  0  0  0  0  0  0  0  0  0
   -0.0000   -2.7713    0.0000 C   0  0  0  0  0  0  0  0  0  0  0  0
    0.8000   -4.1569    0.0000 H   0  0  0  0  0  0  0  0  0  0  0  0
   -1.6000   -2.7713    0.0000 C   0  0  0  0  0  0  0  0  0  0  0  0
   -2.4000   -4.1569    0.0000 Cl  0  0  0  0  0  0  0  0  0  0  0  0
  1  2  1  0  0  0  0
  2  3  1  0  0  0  0
  3  4  1  0  0  0  0
  3  5  2  0  0  0  0
  5  6  1  0  0  0  0
  6  7  1  0  0  0  0
  5  8  1  0  0  0  0
  8  9  1  0  0  0  0
  8 10  2  0  0  0  0
 10 11  1  0  0  0  0
 10 12  1  0  0  0  0
 12  2  2  0  0  0  0
 12 13  1  0  0  0  0
M  END
> <ChemID>
100516

> <source_casrn>
95-77-2

> <CAS>
95-77-2

> <SMILES>
Oc1cc(Cl)c(Cl)cc1

> <NAME>
3,4-DICHLOROPHENOL

> <preferred_name>
3,4-Dichlorophenol

> <iupac>
3,4-dichlorophenol

> <MPID>
19594

> <dsstox_substance_id>
DTXSID7025005

> <Canonical_QSARr>
Oc1cc(Cl)c(Cl)cc1

> <InChI_Code_QSARr>
InChI=1S/C6H4Cl2O/c7-5-2-1-4(9)3-6(5)8/h1-3,9H

> <InChI Key_QSARr>
WDNBURPWRNALGP-UHFFFAOYSA-N

> <Salt_Solvent>
?

> <BP>
253.0

$$$$
100520
  -INDIGO-08031720192D

 17 17  0  0  0  0  0  0  0  0999 V2000
    2.7713   -0.0000    0.0000 C   0  0  0  0  0  0  0  0  0  0  0  0
    2.7713   -1.6000    0.0000 C   0  0  0  0  0  0  0  0  0  0  0  0
    4.1570   -2.4000    0.0000 Cl  0  0  0  0  0  0  0  0  0  0  0  0
    1.3857   -2.4000    0.0000 C   0  0  0  0  0  0  0  0  0  0  0  0
    1.3857   -4.0000    0.0000 H   0  0  0  0  0  0  0  0  0  0  0  0
    0.0000   -1.6000    0.0000 C   0  0  0  0  0  0  0  0  0  0  0  0
   -1.3856   -2.4000    0.0000 H   0  0  0  0  0  0  0  0  0  0  0  0
    0.0000   -0.0000    0.0000 C   0  0  0  0  0  0  0  0  0  0  0  0
   -1.3856    0.8000    0.0000 C   0  0  0  0  0  0  0  0  0  0  0  0
   -2.7713    1.6000    0.0000 H   0  0  0  0  0  0  0  0  0  0  0  0
   -2.7713   -0.0000    0.0000 H   0  0  0  0  0  0  0  0  0  0  0  0
   -1.3856    2.4000    0.0000 H   0  0  0  0  0  0  0  0  0  0  0  0
    1.3857    0.8000    0.0000 C   0  0  0  0  0  0  0  0  0  0  0  0
    1.3857    2.4000    0.0000 H   0  0  0  0  0  0  0  0  0  0  0  0
    4.1570    0.8000    0.0000 N   0  0  0  0  0  0  0  0  0  0  0  0
    5.5426   -0.0000    0.0000 H   0  0  0  0  0  0  0  0  0  0  0  0
    4.1570    2.4000    0.0000 H   0  0  0  0  0  0  0  0  0  0  0  0
  1  2  1  0  0  0  0
  2  3  1  0  0  0  0
  2  4  2  0  0  0  0
  4  5  1  0  0  0  0
  4  6  1  0  0  0  0
  6  7  1  0  0  0  0
  6  8  2  0  0  0  0
  8  9  1  0  0  0  0
  9 10  1  0  0  0  0
  9 11  1  0  0  0  0
  9 12  1  0  0  0  0
  8 13  1  0  0  0  0
 13  1  2  0  0  0  0
 13 14  1  0  0  0  0
  1 15  1  0  0  0  0
 15 16  1  0  0  0  0
 15 17  1  0  0  0  0
M  END
> <ChemID>
100520

> <source_casrn>
95-81-8

> <CAS>
95-81-8

> <SMILES>
Cc1ccc(Cl)c(N)c1

> <NAME>
2-CHLOR-5-METHYL-ANILINE

> <preferred_name>
Benzenamine, 2-chloro-5-methyl-

> <iupac>
2-Chloro-5-methylaniline

> <MPID>
19598

> <dsstox_substance_id>
DTXSID0074554

> <Canonical_QSARr>
Cc1ccc(Cl)c(N)c1

> <InChI_Code_QSARr>
InChI=1S/C7H8ClN/c1-5-2-3-6(8)7(9)4-5/h2-4H,9H2,1H3

> <InChI Key_QSARr>
HPSCXFOQUFPEPE-UHFFFAOYSA-N

> <Salt_Solvent>
?

> <BP>
229.0

$$$$
100524
  -INDIGO-08031720192D

 20 19  0  0  0  0  0  0  0  0999 V2000
    2.7713    0.0000    0.0000 C   0  0  0  0  0  0  0  0  0  0  0  0
    4.1569    0.8000    0.0000 C   0  0  0  0  0  0  0  0  0  0  0  0
    5.5426    0.0000    0.0000 O   0  0  0  0  0  0  0  0  0  0  0  0
    6.9283    0.8000    0.0000 C   0  0  0  0  0  0  0  0  0  0  0  0
    7.5404    2.2782    0.0000 H   0  0  0  0  0  0  0  0  0  0  0  0
    6.3159    2.2782    0.0000 H   0  0  0  0  0  0  0  0  0  0  0  0
    8.3138    0.0000    0.0000 C   0  0  0  0  0  0  0  0  0  0  0  0
    9.6995   -0.8000    0.0000 H   0  0  0  0  0  0  0  0  0  0  0  0
    9.6995    0.8000    0.0000 H   0  0  0  0  0  0  0  0  0  0  0  0
    8.3138   -1.6000    0.0000 H   0  0  0  0  0  0  0  0  0  0  0  0
    4.1569    2.4000    0.0000 O   0  0  0  0  0  0  0  0  0  0  0  0
    1.3856    0.8000    0.0000 O   0  0  0  0  0  0  0  0  0  0  0  0
   -0.0001    0.0000    0.0000 C   0  0  0  0  0  0  0  0  0  0  0  0
   -0.6122   -1.4782    0.0000 H   0  0  0  0  0  0  0  0  0  0  0  0
    0.6123   -1.4782    0.0000 H   0  0  0  0  0  0  0  0  0  0  0  0
   -1.3856    0.8000    0.0000 C   0  0  0  0  0  0  0  0  0  0  0  0
   -2.7713    1.6000    0.0000 H   0  0  0  0  0  0  0  0  0  0  0  0
   -2.7713    0.0000    0.0000 H   0  0  0  0  0  0  0  0  0  0  0  0
   -1.3856    2.4000    0.0000 H   0  0  0  0  0  0  0  0  0  0  0  0
    2.7713   -1.6000    0.0000 O   0  0  0  0  0  0  0  0  0  0  0  0
  1  2  1  0  0  0  0
  2  3  1  0  0  0  0
  3  4  1  0  0  0  0
  4  5  1  0  0  0  0
  4  6  1  0  0  0  0
  4  7  1  0  0  0  0
  7  8  1  0  0  0  0
  7  9  1  0  0  0  0
  7 10  1  0  0  0  0
  2 11  2  0  0  0  0
  1 12  1  0  0  0  0
 12 13  1  0  0  0  0
 13 14  1  0  0  0  0
 13 15  1  0  0  0  0
 13 16  1  0  0  0  0
 16 17  1  0  0  0  0
 16 18  1  0  0  0  0
 16 19  1  0  0  0  0
  1 20  2  0  0  0  0
M  END
> <ChemID>
100524

> <source_casrn>
95-92-1

> <CAS>
95-92-1

> <SMILES>
CCOC(=O)C(=O)OCC

> <NAME>
ETHYL OXALATE

> <preferred_name>
Diethyl oxalate

> <iupac>
diethyl ethanedioate

> <MPID>
19602

> <dsstox_substance_id>
DTXSID2044472

> <Canonical_QSARr>
CCOC(=O)C(=O)OCC

> <InChI_Code_QSARr>
InChI=1S/C6H10O4/c1-3-9-5(7)6(8)10-4-2/h3-4H2,1-2H3

> <InChI Key_QSARr>
WYACBZDAHNBPPB-UHFFFAOYSA-N

> <Salt_Solvent>
?

> <BP>
185.7

$$$$
100528
  -INDIGO-08031720192D

  9  9  0  0  0  0  0  0  0  0999 V2000
   -2.3912    1.5529    0.0000 O   0  0  0  0  0  0  0  0  0  0  0  0
   -0.8000    1.3856    0.0000 C   0  0  0  0  0  0  0  0  0  0  0  0
    0.2706    2.5747    0.0000 O   0  0  0  0  0  0  0  0  0  0  0  0
    1.7323    1.9239    0.0000 C   0  0  0  0  0  0  0  0  0  0  0  0
    3.1179    2.7239    0.0000 O   0  0  0  0  0  0  0  0  0  0  0  0
    1.5650    0.3327    0.0000 C   0  0  0  0  0  0  0  0  0  0  0  0
    2.7541   -0.7379    0.0000 Cl  0  0  0  0  0  0  0  0  0  0  0  0
   -0.0000    0.0000    0.0000 C   0  0  0  0  0  0  0  0  0  0  0  0
   -0.6508   -1.4617    0.0000 H   0  0  0  0  0  0  0  0  0  0  0  0
  1  2  2  0  0  0  0
  2  3  1  0  0  0  0
  3  4  1  0  0  0  0
  4  5  2  0  0  0  0
  4  6  1  0  0  0  0
  6  7  1  0  0  0  0
  6  8  2  0  0  0  0
  8  2  1  0  0  0  0
  8  9  1  0  0  0  0
M  END
> <ChemID>
100528

> <source_casrn>
96-02-6

> <CAS>
96-02-6

> <SMILES>
O=C1OC(=O)C=C1Cl

> <NAME>
2,5-Furandione, 3-chloro-

> <preferred_name>
2,5-Furandione, 3-chloro-

> <iupac>
3-chlorofuran-2,5-dione

> <MPID>
19606

> <dsstox_substance_id>
DTXSID9059127

> <Canonical_QSARr>
O=C1OC(=O)C=C1Cl

> <InChI_Code_QSARr>
InChI=1S/C4HClO3/c5-2-1-3(6)8-4(2)7/h1H

> <InChI Key_QSARr>
CXJAFLQWMOMYOW-UHFFFAOYSA-N

> <Salt_Solvent>
?

> <BP>
196.0

$$$$
100533
  -INDIGO-08031720192D

 20 19  0  0  0  0  0  0  0  0999 V2000
    0.0001   -0.0000    0.0000 C   0  0  0  0  0  0  0  0  0  0  0  0
    0.0001   -1.6000    0.0000 H   0  0  0  0  0  0  0  0  0  0  0  0
   -1.5757   -0.2779    0.0000 C   0  0  0  0  0  0  0  0  0  0  0  0
   -2.9950    0.4610    0.0000 H   0  0  0  0  0  0  0  0  0  0  0  0
   -2.0569    1.2481    0.0000 H   0  0  0  0  0  0  0  0  0  0  0  0
   -2.1229   -1.7814    0.0000 C   0  0  0  0  0  0  0  0  0  0  0  0
   -2.6701   -3.2849    0.0000 H   0  0  0  0  0  0  0  0  0  0  0  0
   -3.6986   -2.0592    0.0000 H   0  0  0  0  0  0  0  0  0  0  0  0
   -1.0945   -3.0070    0.0000 H   0  0  0  0  0  0  0  0  0  0  0  0
    1.5757   -0.2779    0.0000 C   0  0  0  0  0  0  0  0  0  0  0  0
    2.0569    1.2481    0.0000 H   0  0  0  0  0  0  0  0  0  0  0  0
    2.9950    0.4610    0.0000 H   0  0  0  0  0  0  0  0  0  0  0  0
    2.1229   -1.7814    0.0000 C   0  0  0  0  0  0  0  0  0  0  0  0
    2.6701   -3.2849    0.0000 H   0  0  0  0  0  0  0  0  0  0  0  0
    3.6986   -2.0592    0.0000 H   0  0  0  0  0  0  0  0  0  0  0  0
    1.0945   -3.0070    0.0000 H   0  0  0  0  0  0  0  0  0  0  0  0
    0.0001    1.6000    0.0000 C   0  0  0  0  0  0  0  0  0  0  0  0
   -0.0001    3.2000    0.0000 H   0  0  0  0  0  0  0  0  0  0  0  0
    1.3856    2.4000    0.0000 H   0  0  0  0  0  0  0  0  0  0  0  0
   -1.3856    2.4000    0.0000 H   0  0  0  0  0  0  0  0  0  0  0  0
  1  2  1  0  0  0  0
  1  3  1  0  0  0  0
  3  4  1  0  0  0  0
  3  5  1  0  0  0  0
  3  6  1  0  0  0  0
  6  7  1  0  0  0  0
  6  8  1  0  0  0  0
  6  9  1  0  0  0  0
  1 10  1  0  0  0  0
 10 11  1  0  0  0  0
 10 12  1  0  0  0  0
 10 13  1  0  0  0  0
 13 14  1  0  0  0  0
 13 15  1  0  0  0  0
 13 16  1  0  0  0  0
  1 17  1  0  0  0  0
 17 18  1  0  0  0  0
 17 19  1  0  0  0  0
 17 20  1  0  0  0  0
M  END
> <ChemID>
100533

> <source_casrn>
96-14-0

> <CAS>
96-14-0

> <SMILES>
CC(CC)CC

> <NAME>
3-METHYLPENTANE

> <preferred_name>
3-Methylpentane

> <iupac>
3-methylpentane

> <MPID>
19610

> <dsstox_substance_id>
DTXSID8052647

> <Canonical_QSARr>
CC(CC)CC

> <InChI_Code_QSARr>
InChI=1S/C6H14/c1-4-6(3)5-2/h6H,4-5H2,1-3H3

> <InChI Key_QSARr>
PFEOZHBOMNWTJB-UHFFFAOYSA-N

> <Salt_Solvent>
?

> <BP>
63.2

$$$$
100537
  -INDIGO-08031720192D

 16 15  0  0  0  0  0  0  0  0999 V2000
    1.3856    0.8000    0.0000 C   0  0  0  0  0  0  0  0  0  0  0  0
    2.7713    1.6000    0.0000 H   0  0  0  0  0  0  0  0  0  0  0  0
    2.7713    0.0000    0.0000 H   0  0  0  0  0  0  0  0  0  0  0  0
    1.3856    2.4000    0.0000 H   0  0  0  0  0  0  0  0  0  0  0  0
    0.0000    0.0000    0.0000 C   0  0  0  0  0  0  0  0  0  0  0  0
   -0.6122   -1.4782    0.0000 H   0  0  0  0  0  0  0  0  0  0  0  0
    0.6122   -1.4782    0.0000 H   0  0  0  0  0  0  0  0  0  0  0  0
   -1.3857    0.8000    0.0000 C   0  0  0  0  0  0  0  0  0  0  0  0
   -1.3857    2.4000    0.0000 O   0  0  0  0  0  0  0  0  0  0  0  0
   -2.7713    0.0000    0.0000 C   0  0  0  0  0  0  0  0  0  0  0  0
   -3.3835   -1.4782    0.0000 H   0  0  0  0  0  0  0  0  0  0  0  0
   -2.1590   -1.4782    0.0000 H   0  0  0  0  0  0  0  0  0  0  0  0
   -4.1569    0.8000    0.0000 C   0  0  0  0  0  0  0  0  0  0  0  0
   -5.5426    1.6000    0.0000 H   0  0  0  0  0  0  0  0  0  0  0  0
   -5.5426    0.0000    0.0000 H   0  0  0  0  0  0  0  0  0  0  0  0
   -4.1569    2.4000    0.0000 H   0  0  0  0  0  0  0  0  0  0  0  0
  1  2  1  0  0  0  0
  1  3  1  0  0  0  0
  1  4  1  0  0  0  0
  1  5  1  0  0  0  0
  5  6  1  0  0  0  0
  5  7  1  0  0  0  0
  5  8  1  0  0  0  0
  8  9  2  0  0  0  0
  8 10  1  0  0  0  0
 10 11  1  0  0  0  0
 10 12  1  0  0  0  0
 10 13  1  0  0  0  0
 13 14  1  0  0  0  0
 13 15  1  0  0  0  0
 13 16  1  0  0  0  0
M  END
> <ChemID>
100537

> <source_casrn>
96-22-0

> <CAS>
96-22-0

> <SMILES>
CCC(=O)CC

> <NAME>
3-PENTANONE

> <preferred_name>
3-Pentanone

> <iupac>
pentan-3-one

> <MPID>
19614

> <dsstox_substance_id>
DTXSID6021820

> <Canonical_QSARr>
CCC(=O)CC

> <InChI_Code_QSARr>
InChI=1S/C5H10O/c1-3-5(6)4-2/h3-4H2,1-2H3

> <InChI Key_QSARr>
FDPIMTJIUBPUKL-UHFFFAOYSA-N

> <Salt_Solvent>
?

> <BP>
101.9

$$$$
100541
  -INDIGO-08031720192D

 11 10  0  0  0  0  0  0  0  0999 V2000
    1.3856   -0.8000    0.0000 C   0  0  0  0  0  0  0  0  0  0  0  0
    1.3856   -2.4000    0.0000 O   0  0  0  0  0  0  0  0  0  0  0  0
    2.7713    0.0000    0.0000 O   0  0  0  0  0  0  0  0  0  0  0  0
    4.1569   -0.8000    0.0000 C   0  0  0  0  0  0  0  0  0  0  0  0
    5.5426   -1.6000    0.0000 H   0  0  0  0  0  0  0  0  0  0  0  0
    5.5426    0.0000    0.0000 H   0  0  0  0  0  0  0  0  0  0  0  0
    4.1569   -2.4000    0.0000 H   0  0  0  0  0  0  0  0  0  0  0  0
    0.0000    0.0000    0.0000 C   0  0  0  0  0  0  0  0  0  0  0  0
   -1.3856    0.8000    0.0000 H   0  0  0  0  0  0  0  0  0  0  0  0
    0.0000    1.6000    0.0000 H   0  0  0  0  0  0  0  0  0  0  0  0
   -1.3856   -0.8000    0.0000 Br  0  0  0  0  0  0  0  0  0  0  0  0
  1  2  2  0  0  0  0
  1  3  1  0  0  0  0
  3  4  1  0  0  0  0
  4  5  1  0  0  0  0
  4  6  1  0  0  0  0
  4  7  1  0  0  0  0
  1  8  1  0  0  0  0
  8  9  1  0  0  0  0
  8 10  1  0  0  0  0
  8 11  1  0  0  0  0
M  END
> <ChemID>
100541

> <source_casrn>
96-32-2

> <CAS>
96-32-2

> <SMILES>
COC(=O)CBr

> <NAME>
Acetic acid, bromo-, methyl ester

> <preferred_name>
Methyl bromoacetate

> <iupac>
methyl bromoacetate

> <MPID>
19618

> <dsstox_substance_id>
DTXSID7052737

> <Canonical_QSARr>
COC(=O)CBr

> <InChI_Code_QSARr>
InChI=1S/C3H5BrO2/c1-6-3(5)2-4/h2H2,1H3

> <InChI Key_QSARr>
YDCHPLOFQATIDS-UHFFFAOYSA-N

> <Salt_Solvent>
?

> <BP>
132.0

$$$$
100545
  -INDIGO-08031720192D

 16 16  0  0  0  0  0  0  0  0999 V2000
    1.5217   -0.4944    0.0000 O   0  0  0  0  0  0  0  0  0  0  0  0
    2.7107    0.5762    0.0000 H   0  0  0  0  0  0  0  0  0  0  0  0
   -0.0000    0.0000    0.0000 C   0  0  0  0  0  0  0  0  0  0  0  0
    0.6508    1.4617    0.0000 H   0  0  0  0  0  0  0  0  0  0  0  0
   -0.3327   -1.5651    0.0000 C   0  0  0  0  0  0  0  0  0  0  0  0
    1.2585   -1.7322    0.0000 H   0  0  0  0  0  0  0  0  0  0  0  0
   -0.3327   -3.1650    0.0000 H   0  0  0  0  0  0  0  0  0  0  0  0
   -1.9239   -1.7322    0.0000 C   0  0  0  0  0  0  0  0  0  0  0  0
   -1.5913   -3.2973    0.0000 H   0  0  0  0  0  0  0  0  0  0  0  0
   -3.4455   -2.2267    0.0000 H   0  0  0  0  0  0  0  0  0  0  0  0
   -2.5747   -0.2706    0.0000 C   0  0  0  0  0  0  0  0  0  0  0  0
   -3.9603   -1.0706    0.0000 H   0  0  0  0  0  0  0  0  0  0  0  0
   -3.5152    1.0238    0.0000 H   0  0  0  0  0  0  0  0  0  0  0  0
   -1.3857    0.8000    0.0000 C   0  0  0  0  0  0  0  0  0  0  0  0
   -2.5747    1.8706    0.0000 H   0  0  0  0  0  0  0  0  0  0  0  0
   -0.4452    2.0944    0.0000 H   0  0  0  0  0  0  0  0  0  0  0  0
  1  2  1  0  0  0  0
  1  3  1  0  0  0  0
  3  4  1  0  0  0  0
  3  5  1  0  0  0  0
  5  6  1  0  0  0  0
  5  7  1  0  0  0  0
  5  8  1  0  0  0  0
  8  9  1  0  0  0  0
  8 10  1  0  0  0  0
  8 11  1  0  0  0  0
 11 12  1  0  0  0  0
 11 13  1  0  0  0  0
 11 14  1  0  0  0  0
 14  3  1  0  0  0  0
 14 15  1  0  0  0  0
 14 16  1  0  0  0  0
M  END
> <ChemID>
100545

> <source_casrn>
96-41-3

> <CAS>
96-41-3

> <SMILES>
OC1CCCC1

> <NAME>
CYCLOPENTANOL

> <preferred_name>
Cyclopentanol

> <iupac>
cyclopentanol

> <MPID>
19622

> <dsstox_substance_id>
DTXSID1033371

> <Canonical_QSARr>
OC1CCCC1

> <InChI_Code_QSARr>
InChI=1S/C5H10O/c6-5-3-1-2-4-5/h5-6H,1-4H2

> <InChI Key_QSARr>
XCIXKGXIYUWCLL-UHFFFAOYSA-N

> <Salt_Solvent>
?

> <BP>
140.4

$$$$
100549
  -INDIGO-08031720192D

 12 12  0  0  0  0  0  0  0  0999 V2000
   -3.3856    2.3830    0.0000 O   0  0  0  0  0  0  0  0  0  0  0  0
   -1.9239    1.7323    0.0000 C   0  0  0  0  0  0  0  0  0  0  0  0
   -1.5912    0.1672    0.0000 C   0  0  0  0  0  0  0  0  0  0  0  0
   -3.1825    0.0000    0.0000 H   0  0  0  0  0  0  0  0  0  0  0  0
   -1.5912   -1.4328    0.0000 H   0  0  0  0  0  0  0  0  0  0  0  0
    0.0000    0.0000    0.0000 C   0  0  0  0  0  0  0  0  0  0  0  0
   -0.3327   -1.5650    0.0000 H   0  0  0  0  0  0  0  0  0  0  0  0
    1.5217   -0.4944    0.0000 H   0  0  0  0  0  0  0  0  0  0  0  0
    0.6508    1.4617    0.0000 C   0  0  0  0  0  0  0  0  0  0  0  0
    2.0364    0.6617    0.0000 H   0  0  0  0  0  0  0  0  0  0  0  0
    1.5912    2.7561    0.0000 H   0  0  0  0  0  0  0  0  0  0  0  0
   -0.5383    2.5323    0.0000 O   0  0  0  0  0  0  0  0  0  0  0  0
  1  2  2  0  0  0  0
  2  3  1  0  0  0  0
  3  4  1  0  0  0  0
  3  5  1  0  0  0  0
  3  6  1  0  0  0  0
  6  7  1  0  0  0  0
  6  8  1  0  0  0  0
  6  9  1  0  0  0  0
  9 10  1  0  0  0  0
  9 11  1  0  0  0  0
  9 12  1  0  0  0  0
 12  2  1  0  0  0  0
M  END
> <ChemID>
100549

> <source_casrn>
96-48-0

> <CAS>
96-48-0

> <SMILES>
O=C1CCCO1

> <NAME>
GAMMA-BUTYROLACTONE

> <preferred_name>
4-Butyrolactone

> <iupac>
dihydrofuran-2(3H)-one

> <MPID>
19626

> <dsstox_substance_id>
DTXSID6020224

> <Canonical_QSARr>
O=C1CCCO1

> <InChI_Code_QSARr>
InChI=1S/C4H6O2/c5-4-2-1-3-6-4/h1-3H2

> <InChI Key_QSARr>
YEJRWHAVMIAJKC-UHFFFAOYSA-N

> <Salt_Solvent>
?

> <BP>
204.0

$$$$
100553
  -INDIGO-08031720192D

 37 37  0  0  0  0  0  0  0  0999 V2000
   -1.3856    2.4000    0.0000 C   0  0  0  0  0  0  0  0  0  0  0  0
   -0.0000    3.2000    0.0000 O   0  0  0  0  0  0  0  0  0  0  0  0
   -0.0000    4.8000    0.0000 H   0  0  0  0  0  0  0  0  0  0  0  0
   -1.3856    0.8000    0.0000 C   0  0  0  0  0  0  0  0  0  0  0  0
   -0.0000   -0.0000    0.0000 C   0  0  0  0  0  0  0  0  0  0  0  0
    1.3856   -0.8000    0.0000 C   0  0  0  0  0  0  0  0  0  0  0  0
    2.7713   -1.6001    0.0000 H   0  0  0  0  0  0  0  0  0  0  0  0
    2.8891   -0.2528    0.0000 H   0  0  0  0  0  0  0  0  0  0  0  0
    1.6635   -2.3757    0.0000 H   0  0  0  0  0  0  0  0  0  0  0  0
    0.8000    1.3856    0.0000 C   0  0  0  0  0  0  0  0  0  0  0  0
    1.3472    2.8892    0.0000 H   0  0  0  0  0  0  0  0  0  0  0  0
    2.3757    1.6634    0.0000 H   0  0  0  0  0  0  0  0  0  0  0  0
    1.8285    0.1600    0.0000 H   0  0  0  0  0  0  0  0  0  0  0  0
   -0.8000   -1.3857    0.0000 C   0  0  0  0  0  0  0  0  0  0  0  0
   -1.8285   -2.6113    0.0000 H   0  0  0  0  0  0  0  0  0  0  0  0
   -0.2527   -2.8891    0.0000 H   0  0  0  0  0  0  0  0  0  0  0  0
    0.7756   -1.6635    0.0000 H   0  0  0  0  0  0  0  0  0  0  0  0
   -2.7712   -0.0000    0.0000 C   0  0  0  0  0  0  0  0  0  0  0  0
   -2.7712   -1.6001    0.0000 H   0  0  0  0  0  0  0  0  0  0  0  0
   -4.1570    0.8000    0.0000 C   0  0  0  0  0  0  0  0  0  0  0  0
   -5.5425   -0.0000    0.0000 C   0  0  0  0  0  0  0  0  0  0  0  0
   -6.9281   -0.8000    0.0000 C   0  0  0  0  0  0  0  0  0  0  0  0
   -8.3139   -1.6001    0.0000 H   0  0  0  0  0  0  0  0  0  0  0  0
   -8.4317   -0.2528    0.0000 H   0  0  0  0  0  0  0  0  0  0  0  0
   -7.2061   -2.3757    0.0000 H   0  0  0  0  0  0  0  0  0  0  0  0
   -6.3425    1.3856    0.0000 C   0  0  0  0  0  0  0  0  0  0  0  0
   -6.8898    2.8892    0.0000 H   0  0  0  0  0  0  0  0  0  0  0  0
   -7.9183    1.6634    0.0000 H   0  0  0  0  0  0  0  0  0  0  0  0
   -7.3711    0.1600    0.0000 H   0  0  0  0  0  0  0  0  0  0  0  0
   -4.7426   -1.3857    0.0000 C   0  0  0  0  0  0  0  0  0  0  0  0
   -3.7140   -2.6113    0.0000 H   0  0  0  0  0  0  0  0  0  0  0  0
   -5.2898   -2.8891    0.0000 H   0  0  0  0  0  0  0  0  0  0  0  0
   -6.3182   -1.6635    0.0000 H   0  0  0  0  0  0  0  0  0  0  0  0
   -4.1570    2.4000    0.0000 C   0  0  0  0  0  0  0  0  0  0  0  0
   -5.5425    3.2000    0.0000 H   0  0  0  0  0  0  0  0  0  0  0  0
   -2.7712    3.2000    0.0000 C   0  0  0  0  0  0  0  0  0  0  0  0
   -2.7712    4.8000    0.0000 H   0  0  0  0  0  0  0  0  0  0  0  0
  1  2  1  0  0  0  0
  2  3  1  0  0  0  0
  1  4  1  0  0  0  0
  4  5  1  0  0  0  0
  5  6  1  0  0  0  0
  6  7  1  0  0  0  0
  6  8  1  0  0  0  0
  6  9  1  0  0  0  0
  5 10  1  0  0  0  0
 10 11  1  0  0  0  0
 10 12  1  0  0  0  0
 10 13  1  0  0  0  0
  5 14  1  0  0  0  0
 14 15  1  0  0  0  0
 14 16  1  0  0  0  0
 14 17  1  0  0  0  0
  4 18  2  0  0  0  0
 18 19  1  0  0  0  0
 18 20  1  0  0  0  0
 20 21  1  0  0  0  0
 21 22  1  0  0  0  0
 22 23  1  0  0  0  0
 22 24  1  0  0  0  0
 22 25  1  0  0  0  0
 21 26  1  0  0  0  0
 26 27  1  0  0  0  0
 26 28  1  0  0  0  0
 26 29  1  0  0  0  0
 21 30  1  0  0  0  0
 30 31  1  0  0  0  0
 30 32  1  0  0  0  0
 30 33  1  0  0  0  0
 20 34  2  0  0  0  0
 34 35  1  0  0  0  0
 34 36  1  0  0  0  0
 36  1  2  0  0  0  0
 36 37  1  0  0  0  0
M  END
> <ChemID>
100553

> <source_casrn>
96-76-4

> <CAS>
96-76-4

> <SMILES>
CC(C)(C)c1cc(ccc1O)C(C)(C)C

> <NAME>
2,4-DI-T-BUTYLPHENOL

> <preferred_name>
2,4-Di-tert-butylphenol

> <iupac>
2,4-di-tert-butylphenol

> <MPID>
19630

> <dsstox_substance_id>
DTXSID2026602

> <Canonical_QSARr>
CC(C)(C)c1cc(ccc1O)C(C)(C)C

> <InChI_Code_QSARr>
InChI=1S/C14H22O/c1-13(2,3)10-7-8-12(15)11(9-10)14(4,5)6/h7-9,15H,1-6H3

> <InChI Key_QSARr>
ICKWICRCANNIBI-UHFFFAOYSA-N

> <Salt_Solvent>
?

> <BP>
263.5

$$$$
100557
  -INDIGO-08031720192D

 24 24  0  0  0  0  0  0  0  0999 V2000
   -4.1570    2.4000    0.0000 O   0  0  0  0  0  0  0  0  0  0  0  0
   -4.1570    4.0000    0.0000 H   0  0  0  0  0  0  0  0  0  0  0  0
   -2.7713    1.6000    0.0000 C   0  0  0  0  0  0  0  0  0  0  0  0
   -2.7713    0.0000    0.0000 C   0  0  0  0  0  0  0  0  0  0  0  0
   -4.1570   -0.8000    0.0000 O   0  0  0  0  0  0  0  0  0  0  0  0
   -5.5425    0.0000    0.0000 C   0  0  0  0  0  0  0  0  0  0  0  0
   -6.9282   -0.8000    0.0000 H   0  0  0  0  0  0  0  0  0  0  0  0
   -6.9282    0.8000    0.0000 H   0  0  0  0  0  0  0  0  0  0  0  0
   -5.5425   -1.6000    0.0000 H   0  0  0  0  0  0  0  0  0  0  0  0
   -1.3856   -0.8000    0.0000 C   0  0  0  0  0  0  0  0  0  0  0  0
   -1.3856   -2.4000    0.0000 H   0  0  0  0  0  0  0  0  0  0  0  0
   -0.0001    0.0000    0.0000 C   0  0  0  0  0  0  0  0  0  0  0  0
    1.3856   -0.8000    0.0000 C   0  0  0  0  0  0  0  0  0  0  0  0
    1.9980   -2.2782    0.0000 H   0  0  0  0  0  0  0  0  0  0  0  0
    0.7733   -2.2782    0.0000 H   0  0  0  0  0  0  0  0  0  0  0  0
    2.7713    0.0000    0.0000 C   0  0  0  0  0  0  0  0  0  0  0  0
    2.7713    1.6000    0.0000 H   0  0  0  0  0  0  0  0  0  0  0  0
    4.1569   -0.8000    0.0000 C   0  0  0  0  0  0  0  0  0  0  0  0
    5.5426    0.0000    0.0000 H   0  0  0  0  0  0  0  0  0  0  0  0
    4.1569   -2.4000    0.0000 H   0  0  0  0  0  0  0  0  0  0  0  0
   -0.0001    1.6000    0.0000 C   0  0  0  0  0  0  0  0  0  0  0  0
    1.3856    2.4000    0.0000 H   0  0  0  0  0  0  0  0  0  0  0  0
   -1.3856    2.4000    0.0000 C   0  0  0  0  0  0  0  0  0  0  0  0
   -1.3856    4.0000    0.0000 H   0  0  0  0  0  0  0  0  0  0  0  0
  1  2  1  0  0  0  0
  1  3  1  0  0  0  0
  3  4  1  0  0  0  0
  4  5  1  0  0  0  0
  5  6  1  0  0  0  0
  6  7  1  0  0  0  0
  6  8  1  0  0  0  0
  6  9  1  0  0  0  0
  4 10  2  0  0  0  0
 10 11  1  0  0  0  0
 10 12  1  0  0  0  0
 12 13  1  0  0  0  0
 13 14  1  0  0  0  0
 13 15  1  0  0  0  0
 13 16  1  0  0  0  0
 16 17  1  0  0  0  0
 16 18  2  0  0  0  0
 18 19  1  0  0  0  0
 18 20  1  0  0  0  0
 12 21  2  0  0  0  0
 21 22  1  0  0  0  0
 21 23  1  0  0  0  0
 23  3  2  0  0  0  0
 23 24  1  0  0  0  0
M  END
> <ChemID>
100557

> <source_casrn>
97-53-0

> <CAS>
97-53-0

> <SMILES>
COc1cc(CC=C)ccc1O

> <NAME>
EUGENOL

> <preferred_name>
Eugenol

> <iupac>
2-methoxy-4-(prop-2-en-1-yl)phenol

> <MPID>
19634

> <dsstox_substance_id>
DTXSID9020617

> <Canonical_QSARr>
COc1cc(CC=C)ccc1O

> <InChI_Code_QSARr>
InChI=1S/C10H12O2/c1-3-4-8-5-6-9(11)10(7-8)12-2/h3,5-7,11H,1,4H2,2H3

> <InChI Key_QSARr>
RRAFCDWBNXTKKO-UHFFFAOYSA-N

> <Salt_Solvent>
?

> <BP>
253.2

$$$$
100561
  -INDIGO-08031720192D

 18 17  0  0  0  0  0  0  0  0999 V2000
   -2.7713   -1.6000    0.0000 O   0  0  0  0  0  0  0  0  0  0  0  0
   -2.7713    0.0000    0.0000 C   0  0  0  0  0  0  0  0  0  0  0  0
   -1.3856    0.8000    0.0000 O   0  0  0  0  0  0  0  0  0  0  0  0
    0.0000    0.0000    0.0000 C   0  0  0  0  0  0  0  0  0  0  0  0
    0.6123   -1.4782    0.0000 H   0  0  0  0  0  0  0  0  0  0  0  0
   -0.6123   -1.4782    0.0000 H   0  0  0  0  0  0  0  0  0  0  0  0
    1.3857    0.8000    0.0000 C   0  0  0  0  0  0  0  0  0  0  0  0
    2.7713    1.6000    0.0000 H   0  0  0  0  0  0  0  0  0  0  0  0
    2.7713    0.0000    0.0000 H   0  0  0  0  0  0  0  0  0  0  0  0
    1.3857    2.4000    0.0000 H   0  0  0  0  0  0  0  0  0  0  0  0
   -4.1570    0.8000    0.0000 C   0  0  0  0  0  0  0  0  0  0  0  0
   -4.1570    2.4000    0.0000 C   0  0  0  0  0  0  0  0  0  0  0  0
   -5.5426    3.2000    0.0000 H   0  0  0  0  0  0  0  0  0  0  0  0
   -2.7713    3.2000    0.0000 H   0  0  0  0  0  0  0  0  0  0  0  0
   -5.5426    0.0000    0.0000 C   0  0  0  0  0  0  0  0  0  0  0  0
   -6.9282   -0.8000    0.0000 H   0  0  0  0  0  0  0  0  0  0  0  0
   -6.9282    0.8000    0.0000 H   0  0  0  0  0  0  0  0  0  0  0  0
   -5.5426   -1.6000    0.0000 H   0  0  0  0  0  0  0  0  0  0  0  0
  1  2  2  0  0  0  0
  2  3  1  0  0  0  0
  3  4  1  0  0  0  0
  4  5  1  0  0  0  0
  4  6  1  0  0  0  0
  4  7  1  0  0  0  0
  7  8  1  0  0  0  0
  7  9  1  0  0  0  0
  7 10  1  0  0  0  0
  2 11  1  0  0  0  0
 11 12  2  0  0  0  0
 12 13  1  0  0  0  0
 12 14  1  0  0  0  0
 11 15  1  0  0  0  0
 15 16  1  0  0  0  0
 15 17  1  0  0  0  0
 15 18  1  0  0  0  0
M  END
> <ChemID>
100561

> <source_casrn>
97-63-2

> <CAS>
97-63-2

> <SMILES>
CC(=C)C(=O)OCC

> <NAME>
ETHYL METHACRYLATE

> <preferred_name>
Ethyl methacrylate

> <iupac>
ethyl 2-methylprop-2-enoate

> <MPID>
19638

> <dsstox_substance_id>
DTXSID1025308

> <Canonical_QSARr>
CC(=C)C(=O)OCC

> <InChI_Code_QSARr>
InChI=1S/C6H10O2/c1-4-8-6(7)5(2)3/h2,4H2,1,3H3

> <InChI Key_QSARr>
SUPCQIBBMFXVTL-UHFFFAOYSA-N

> <Salt_Solvent>
?

> <BP>
117.0

$$$$
100565
  -INDIGO-08031720192D

 26 25  0  0  0  0  0  0  0  0999 V2000
    4.1569   -0.8000    0.0000 C   0  0  0  0  0  0  0  0  0  0  0  0
    5.5425    0.0000    0.0000 C   0  0  0  0  0  0  0  0  0  0  0  0
    4.7426    1.3856    0.0000 H   0  0  0  0  0  0  0  0  0  0  0  0
    6.9282    0.8000    0.0000 C   0  0  0  0  0  0  0  0  0  0  0  0
    8.3138    1.6000    0.0000 H   0  0  0  0  0  0  0  0  0  0  0  0
    8.3138   -0.0000    0.0000 H   0  0  0  0  0  0  0  0  0  0  0  0
    6.9282    2.4000    0.0000 H   0  0  0  0  0  0  0  0  0  0  0  0
    6.3426   -1.3856    0.0000 C   0  0  0  0  0  0  0  0  0  0  0  0
    7.1425   -2.7713    0.0000 H   0  0  0  0  0  0  0  0  0  0  0  0
    7.9426   -1.3856    0.0000 H   0  0  0  0  0  0  0  0  0  0  0  0
    5.5425   -2.7713    0.0000 H   0  0  0  0  0  0  0  0  0  0  0  0
    2.7714    0.0000    0.0000 O   0  0  0  0  0  0  0  0  0  0  0  0
    1.3857   -0.8000    0.0000 C   0  0  0  0  0  0  0  0  0  0  0  0
    0.7734   -2.2782    0.0000 H   0  0  0  0  0  0  0  0  0  0  0  0
    1.9979   -2.2782    0.0000 H   0  0  0  0  0  0  0  0  0  0  0  0
    0.0000    0.0000    0.0000 C   0  0  0  0  0  0  0  0  0  0  0  0
   -0.8000   -1.3856    0.0000 H   0  0  0  0  0  0  0  0  0  0  0  0
   -1.3856    0.8000    0.0000 C   0  0  0  0  0  0  0  0  0  0  0  0
   -2.7713    1.6000    0.0000 H   0  0  0  0  0  0  0  0  0  0  0  0
   -2.7713    0.0000    0.0000 H   0  0  0  0  0  0  0  0  0  0  0  0
   -1.3856    2.4000    0.0000 H   0  0  0  0  0  0  0  0  0  0  0  0
    0.7999    1.3856    0.0000 C   0  0  0  0  0  0  0  0  0  0  0  0
    1.6000    2.7713    0.0000 H   0  0  0  0  0  0  0  0  0  0  0  0
    2.3999    1.3856    0.0000 H   0  0  0  0  0  0  0  0  0  0  0  0
    0.0000    2.7713    0.0000 H   0  0  0  0  0  0  0  0  0  0  0  0
    4.1569   -2.4000    0.0000 O   0  0  0  0  0  0  0  0  0  0  0  0
  1  2  1  0  0  0  0
  2  3  1  0  0  0  0
  2  4  1  0  0  0  0
  4  5  1  0  0  0  0
  4  6  1  0  0  0  0
  4  7  1  0  0  0  0
  2  8  1  0  0  0  0
  8  9  1  0  0  0  0
  8 10  1  0  0  0  0
  8 11  1  0  0  0  0
  1 12  1  0  0  0  0
 12 13  1  0  0  0  0
 13 14  1  0  0  0  0
 13 15  1  0  0  0  0
 13 16  1  0  0  0  0
 16 17  1  0  0  0  0
 16 18  1  0  0  0  0
 18 19  1  0  0  0  0
 18 20  1  0  0  0  0
 18 21  1  0  0  0  0
 16 22  1  0  0  0  0
 22 23  1  0  0  0  0
 22 24  1  0  0  0  0
 22 25  1  0  0  0  0
  1 26  2  0  0  0  0
M  END
> <ChemID>
100565

> <source_casrn>
97-85-8

> <CAS>
97-85-8

> <SMILES>
CC(C)C(=O)OCC(C)C

> <NAME>
ISOBUTYL ISOBUTYRATE

> <preferred_name>
Isobutyl isobutyrate

> <iupac>
2-methylpropyl 2-methylpropanoate

> <MPID>
19642

> <dsstox_substance_id>
DTXSID6026612

> <Canonical_QSARr>
CC(C)C(=O)OCC(C)C

> <InChI_Code_QSARr>
InChI=1S/C8H16O2/c1-6(2)5-10-8(9)7(3)4/h6-7H,5H2,1-4H3

> <InChI Key_QSARr>
RXGUIWHIADMCFC-UHFFFAOYSA-N

> <Salt_Solvent>
?

> <BP>
148.6

$$$$
100570
  -INDIGO-08031720192D

 22 21  0  0  0  0  0  0  0  0999 V2000
    0.0001   -0.0000    0.0000 B   0  0  0  0  0  0  0  0  0  0  0  0
    0.8000    1.3856    0.0000 C   0  0  0  0  0  0  0  0  0  0  0  0
    0.5911    2.9720    0.0000 H   0  0  0  0  0  0  0  0  0  0  0  0
   -0.4693    2.3596    0.0000 H   0  0  0  0  0  0  0  0  0  0  0  0
    2.4000    1.3856    0.0000 C   0  0  0  0  0  0  0  0  0  0  0  0
    4.0000    1.3856    0.0000 H   0  0  0  0  0  0  0  0  0  0  0  0
    3.2001    2.7713    0.0000 H   0  0  0  0  0  0  0  0  0  0  0  0
    3.2001   -0.0000    0.0000 H   0  0  0  0  0  0  0  0  0  0  0  0
    0.8000   -1.3857    0.0000 C   0  0  0  0  0  0  0  0  0  0  0  0
    2.2782   -1.9980    0.0000 H   0  0  0  0  0  0  0  0  0  0  0  0
    2.2782   -0.7733    0.0000 H   0  0  0  0  0  0  0  0  0  0  0  0
    0.0001   -2.7713    0.0000 C   0  0  0  0  0  0  0  0  0  0  0  0
   -0.8000   -4.1569    0.0000 H   0  0  0  0  0  0  0  0  0  0  0  0
    0.8000   -4.1569    0.0000 H   0  0  0  0  0  0  0  0  0  0  0  0
   -1.5999   -2.7713    0.0000 H   0  0  0  0  0  0  0  0  0  0  0  0
   -1.5999   -0.0000    0.0000 C   0  0  0  0  0  0  0  0  0  0  0  0
   -2.8694   -0.9740    0.0000 H   0  0  0  0  0  0  0  0  0  0  0  0
   -1.8088   -1.5864    0.0000 H   0  0  0  0  0  0  0  0  0  0  0  0
   -2.4000    1.3856    0.0000 C   0  0  0  0  0  0  0  0  0  0  0  0
   -3.2001    2.7713    0.0000 H   0  0  0  0  0  0  0  0  0  0  0  0
   -4.0000    1.3856    0.0000 H   0  0  0  0  0  0  0  0  0  0  0  0
   -1.5999    2.7713    0.0000 H   0  0  0  0  0  0  0  0  0  0  0  0
  1  2  1  0  0  0  0
  2  3  1  0  0  0  0
  2  4  1  0  0  0  0
  2  5  1  0  0  0  0
  5  6  1  0  0  0  0
  5  7  1  0  0  0  0
  5  8  1  0  0  0  0
  1  9  1  0  0  0  0
  9 10  1  0  0  0  0
  9 11  1  0  0  0  0
  9 12  1  0  0  0  0
 12 13  1  0  0  0  0
 12 14  1  0  0  0  0
 12 15  1  0  0  0  0
  1 16  1  0  0  0  0
 16 17  1  0  0  0  0
 16 18  1  0  0  0  0
 16 19  1  0  0  0  0
 19 20  1  0  0  0  0
 19 21  1  0  0  0  0
 19 22  1  0  0  0  0
M  END
> <ChemID>
100570

> <source_casrn>
97-94-9

> <CAS>
97-94-9

> <SMILES>
CCB(CC)CC

> <NAME>
TRIETHYLBORINE

> <preferred_name>
Triethylborane

> <iupac>
triethylborane

> <MPID>
19646

> <dsstox_substance_id>
DTXSID2052653

> <Canonical_QSARr>
CCB(CC)CC

> <InChI_Code_QSARr>
InChI=1S/C6H15B/c1-4-7(5-2)6-3/h4-6H2,1-3H3

> <InChI Key_QSARr>
LALRXNPLTWZJIJ-UHFFFAOYSA-N

> <Salt_Solvent>
?

> <BP>
95.0

$$$$
100574
  -INDIGO-08031720192D

 13 13  0  0  0  0  0  0  0  0999 V2000
   -1.1890    1.0706    0.0000 C   0  0  0  0  0  0  0  0  0  0  0  0
   -1.0218    2.6618    0.0000 H   0  0  0  0  0  0  0  0  0  0  0  0
    0.0000   -0.0000    0.0000 C   0  0  0  0  0  0  0  0  0  0  0  0
    1.5650    0.3326    0.0000 C   0  0  0  0  0  0  0  0  0  0  0  0
    2.6042    1.5493    0.0000 H   0  0  0  0  0  0  0  0  0  0  0  0
    1.4395    1.9278    0.0000 H   0  0  0  0  0  0  0  0  0  0  0  0
    2.6356   -0.8564    0.0000 O   0  0  0  0  0  0  0  0  0  0  0  0
    4.2007   -0.5237    0.0000 H   0  0  0  0  0  0  0  0  0  0  0  0
   -0.6508   -1.4617    0.0000 O   0  0  0  0  0  0  0  0  0  0  0  0
   -2.2420   -1.2944    0.0000 C   0  0  0  0  0  0  0  0  0  0  0  0
   -3.3126   -2.4835    0.0000 H   0  0  0  0  0  0  0  0  0  0  0  0
   -2.5747    0.2706    0.0000 C   0  0  0  0  0  0  0  0  0  0  0  0
   -4.0363    0.9214    0.0000 H   0  0  0  0  0  0  0  0  0  0  0  0
  1  2  1  0  0  0  0
  1  3  2  0  0  0  0
  3  4  1  0  0  0  0
  4  5  1  0  0  0  0
  4  6  1  0  0  0  0
  4  7  1  0  0  0  0
  7  8  1  0  0  0  0
  3  9  1  0  0  0  0
  9 10  1  0  0  0  0
 10 11  1  0  0  0  0
 10 12  2  0  0  0  0
 12  1  1  0  0  0  0
 12 13  1  0  0  0  0
M  END
> <ChemID>
100574

> <source_casrn>
98-00-0

> <CAS>
98-00-0

> <SMILES>
OCc1ccco1

> <NAME>
2-HYDROXYMETHYLFURAN

> <preferred_name>
Furfuryl alcohol

> <iupac>
furan-2-ylmethanol

> <MPID>
19650

> <dsstox_substance_id>
DTXSID2025347

> <Canonical_QSARr>
OCc1ccco1

> <InChI_Code_QSARr>
InChI=1S/C5H6O2/c6-4-5-2-1-3-7-5/h1-3,6H,4H2

> <InChI Key_QSARr>
XPFVYQJUAUNWIW-UHFFFAOYSA-N

> <Salt_Solvent>
?

> <BP>
171.0

$$$$
100579
  -INDIGO-08031720192D

 15 15  0  0  0  0  0  0  0  0999 V2000
   -2.4001    1.3856    0.0000 Cl  0  0  0  0  0  0  0  0  0  0  0  0
   -1.6000   -0.0000    0.0000 C   0  0  0  0  0  0  0  0  0  0  0  0
    0.0000   -0.0000    0.0000 C   0  0  0  0  0  0  0  0  0  0  0  0
    0.8001    1.3856    0.0000 C   0  0  0  0  0  0  0  0  0  0  0  0
    0.0000    2.7713    0.0000 H   0  0  0  0  0  0  0  0  0  0  0  0
    2.4001    1.3856    0.0000 C   0  0  0  0  0  0  0  0  0  0  0  0
    3.2000    2.7713    0.0000 H   0  0  0  0  0  0  0  0  0  0  0  0
    3.2000   -0.0000    0.0000 C   0  0  0  0  0  0  0  0  0  0  0  0
    4.8000   -0.0000    0.0000 H   0  0  0  0  0  0  0  0  0  0  0  0
    2.4001   -1.3856    0.0000 C   0  0  0  0  0  0  0  0  0  0  0  0
    3.2000   -2.7713    0.0000 H   0  0  0  0  0  0  0  0  0  0  0  0
    0.8001   -1.3856    0.0000 C   0  0  0  0  0  0  0  0  0  0  0  0
    0.0000   -2.7713    0.0000 H   0  0  0  0  0  0  0  0  0  0  0  0
   -3.2000   -0.0000    0.0000 Cl  0  0  0  0  0  0  0  0  0  0  0  0
   -2.3999   -1.3856    0.0000 Cl  0  0  0  0  0  0  0  0  0  0  0  0
  1  2  1  0  0  0  0
  2  3  1  0  0  0  0
  3  4  1  0  0  0  0
  4  5  1  0  0  0  0
  4  6  2  0  0  0  0
  6  7  1  0  0  0  0
  6  8  1  0  0  0  0
  8  9  1  0  0  0  0
  8 10  2  0  0  0  0
 10 11  1  0  0  0  0
 10 12  1  0  0  0  0
 12  3  2  0  0  0  0
 12 13  1  0  0  0  0
  2 14  1  0  0  0  0
  2 15  1  0  0  0  0
M  END
> <ChemID>
100579

> <source_casrn>
98-07-7

> <CAS>
98-07-7

> <SMILES>
ClC(Cl)(Cl)c1ccccc1

> <NAME>
BENZOTRICHLORIDE

> <preferred_name>
Benzotrichloride

> <iupac>
(trichloromethyl)benzene

> <MPID>
19654

> <dsstox_substance_id>
DTXSID1020148

> <Canonical_QSARr>
ClC(Cl)(Cl)c1ccccc1

> <InChI_Code_QSARr>
InChI=1S/C7H5Cl3/c8-7(9,10)6-4-2-1-3-5-6/h1-5H

> <InChI Key_QSARr>
XEMRAKSQROQPBR-UHFFFAOYSA-N

> <Salt_Solvent>
?

> <BP>
221.0

$$$$
100583
  -INDIGO-08031720192D

 15 15  0  0  0  0  0  0  0  0999 V2000
    2.4001    1.3856    0.0000 F   0  0  0  0  0  0  0  0  0  0  0  0
    1.6000   -0.0000    0.0000 C   0  0  0  0  0  0  0  0  0  0  0  0
    3.2000   -0.0000    0.0000 F   0  0  0  0  0  0  0  0  0  0  0  0
    2.4001   -1.3856    0.0000 F   0  0  0  0  0  0  0  0  0  0  0  0
    0.0000   -0.0000    0.0000 C   0  0  0  0  0  0  0  0  0  0  0  0
   -0.7999    1.3856    0.0000 C   0  0  0  0  0  0  0  0  0  0  0  0
    0.0000    2.7713    0.0000 H   0  0  0  0  0  0  0  0  0  0  0  0
   -2.4001    1.3856    0.0000 C   0  0  0  0  0  0  0  0  0  0  0  0
   -3.2000    2.7713    0.0000 H   0  0  0  0  0  0  0  0  0  0  0  0
   -3.2000   -0.0000    0.0000 C   0  0  0  0  0  0  0  0  0  0  0  0
   -4.8000   -0.0000    0.0000 H   0  0  0  0  0  0  0  0  0  0  0  0
   -2.4001   -1.3856    0.0000 C   0  0  0  0  0  0  0  0  0  0  0  0
   -3.2000   -2.7713    0.0000 Cl  0  0  0  0  0  0  0  0  0  0  0  0
   -0.8001   -1.3856    0.0000 C   0  0  0  0  0  0  0  0  0  0  0  0
    0.0000   -2.7713    0.0000 H   0  0  0  0  0  0  0  0  0  0  0  0
  1  2  1  0  0  0  0
  2  3  1  0  0  0  0
  2  4  1  0  0  0  0
  2  5  1  0  0  0  0
  5  6  1  0  0  0  0
  6  7  1  0  0  0  0
  6  8  2  0  0  0  0
  8  9  1  0  0  0  0
  8 10  1  0  0  0  0
 10 11  1  0  0  0  0
 10 12  2  0  0  0  0
 12 13  1  0  0  0  0
 12 14  1  0  0  0  0
 14  5  2  0  0  0  0
 14 15  1  0  0  0  0
M  END
> <ChemID>
100583

> <source_casrn>
98-15-7

> <CAS>
98-15-7

> <SMILES>
FC(F)(F)c1cccc(Cl)c1

> <NAME>
Benzene, 1-chloro-3-(trifluoromethyl)-

> <preferred_name>
3-Chlorobenzotrifluoride

> <iupac>
1-chloro-3-(trifluoromethyl)benzene

> <MPID>
19658

> <dsstox_substance_id>
DTXSID4024773

> <Canonical_QSARr>
FC(F)(F)c1cccc(Cl)c1

> <InChI_Code_QSARr>
InChI=1S/C7H4ClF3/c8-6-3-1-2-5(4-6)7(9,10)11/h1-4H

> <InChI Key_QSARr>
YTCGOUNVIAWCMG-UHFFFAOYSA-N

> <Salt_Solvent>
?

> <BP>
137.5

$$$$
100587
  -INDIGO-08031720192D

 28 28  0  0  0  0  0  0  0  0999 V2000
    0.0001    0.0000    0.0000 C   0  0  0  0  0  0  0  0  0  0  0  0
    1.6000    0.0000    0.0000 C   0  0  0  0  0  0  0  0  0  0  0  0
    2.4000    1.3857    0.0000 C   0  0  0  0  0  0  0  0  0  0  0  0
    1.6000    2.7713    0.0000 H   0  0  0  0  0  0  0  0  0  0  0  0
    3.9999    1.3857    0.0000 C   0  0  0  0  0  0  0  0  0  0  0  0
    4.8001    2.7713    0.0000 C   0  0  0  0  0  0  0  0  0  0  0  0
    5.6000    4.1569    0.0000 H   0  0  0  0  0  0  0  0  0  0  0  0
    6.4000    2.7713    0.0000 H   0  0  0  0  0  0  0  0  0  0  0  0
    3.9999    4.1569    0.0000 H   0  0  0  0  0  0  0  0  0  0  0  0
    4.8001    0.0000    0.0000 C   0  0  0  0  0  0  0  0  0  0  0  0
    6.4000    0.0000    0.0000 O   0  0  0  0  0  0  0  0  0  0  0  0
    7.2000   -1.3856    0.0000 H   0  0  0  0  0  0  0  0  0  0  0  0
    3.9999   -1.3856    0.0000 C   0  0  0  0  0  0  0  0  0  0  0  0
    4.8001   -2.7713    0.0000 H   0  0  0  0  0  0  0  0  0  0  0  0
    2.4000   -1.3856    0.0000 C   0  0  0  0  0  0  0  0  0  0  0  0
    1.6000   -2.7713    0.0000 H   0  0  0  0  0  0  0  0  0  0  0  0
   -1.6000    0.0000    0.0000 C   0  0  0  0  0  0  0  0  0  0  0  0
   -3.2000    0.0000    0.0000 H   0  0  0  0  0  0  0  0  0  0  0  0
   -2.6284   -1.2257    0.0000 H   0  0  0  0  0  0  0  0  0  0  0  0
   -2.6284    1.2257    0.0000 H   0  0  0  0  0  0  0  0  0  0  0  0
    0.0001   -1.6000    0.0000 C   0  0  0  0  0  0  0  0  0  0  0  0
    0.2778   -3.1757    0.0000 H   0  0  0  0  0  0  0  0  0  0  0  0
   -1.2257   -2.6284    0.0000 H   0  0  0  0  0  0  0  0  0  0  0  0
   -1.5036   -1.0527    0.0000 H   0  0  0  0  0  0  0  0  0  0  0  0
    0.0001    1.6000    0.0000 C   0  0  0  0  0  0  0  0  0  0  0  0
    0.2778    3.1757    0.0000 H   0  0  0  0  0  0  0  0  0  0  0  0
   -1.2257    2.6284    0.0000 H   0  0  0  0  0  0  0  0  0  0  0  0
   -1.5036    1.0528    0.0000 H   0  0  0  0  0  0  0  0  0  0  0  0
  1  2  1  0  0  0  0
  2  3  1  0  0  0  0
  3  4  1  0  0  0  0
  3  5  2  0  0  0  0
  5  6  1  0  0  0  0
  6  7  1  0  0  0  0
  6  8  1  0  0  0  0
  6  9  1  0  0  0  0
  5 10  1  0  0  0  0
 10 11  1  0  0  0  0
 11 12  1  0  0  0  0
 10 13  2  0  0  0  0
 13 14  1  0  0  0  0
 13 15  1  0  0  0  0
 15  2  2  0  0  0  0
 15 16  1  0  0  0  0
  1 17  1  0  0  0  0
 17 18  1  0  0  0  0
 17 19  1  0  0  0  0
 17 20  1  0  0  0  0
  1 21  1  0  0  0  0
 21 22  1  0  0  0  0
 21 23  1  0  0  0  0
 21 24  1  0  0  0  0
  1 25  1  0  0  0  0
 25 26  1  0  0  0  0
 25 27  1  0  0  0  0
 25 28  1  0  0  0  0
M  END
> <ChemID>
100587

> <source_casrn>
98-27-1

> <CAS>
98-27-1

> <SMILES>
Cc1cc(ccc1O)C(C)(C)C

> <NAME>
4-(T-BUTYL)-2-CRESOL

> <preferred_name>
Phenol, 4-(1,1-dimethylethyl)-2-methyl-

> <iupac>
4-tert-Butyl-2-methylphenol

> <MPID>
19662

> <dsstox_substance_id>
DTXSID5059163

> <Canonical_QSARr>
Cc1cc(ccc1O)C(C)(C)C

> <InChI_Code_QSARr>
InChI=1S/C11H16O/c1-8-7-9(11(2,3)4)5-6-10(8)12/h5-7,12H,1-4H3

> <InChI Key_QSARr>
SNKLPZOJLXDZCW-UHFFFAOYSA-N

> <Salt_Solvent>
?

> <BP>
237.0

$$$$
100591
  -INDIGO-08031720192D

 25 25  0  0  0  0  0  0  0  0999 V2000
    0.0001    0.0000    0.0000 C   0  0  0  0  0  0  0  0  0  0  0  0
    1.6000    0.0000    0.0000 C   0  0  0  0  0  0  0  0  0  0  0  0
    2.4000    1.3857    0.0000 C   0  0  0  0  0  0  0  0  0  0  0  0
    1.6000    2.7713    0.0000 H   0  0  0  0  0  0  0  0  0  0  0  0
    3.9999    1.3857    0.0000 C   0  0  0  0  0  0  0  0  0  0  0  0
    4.8001    2.7713    0.0000 H   0  0  0  0  0  0  0  0  0  0  0  0
    4.8001    0.0000    0.0000 C   0  0  0  0  0  0  0  0  0  0  0  0
    6.4000    0.0000    0.0000 O   0  0  0  0  0  0  0  0  0  0  0  0
    7.2000    1.3857    0.0000 H   0  0  0  0  0  0  0  0  0  0  0  0
    3.9999   -1.3857    0.0000 C   0  0  0  0  0  0  0  0  0  0  0  0
    4.8001   -2.7713    0.0000 H   0  0  0  0  0  0  0  0  0  0  0  0
    2.4000   -1.3857    0.0000 C   0  0  0  0  0  0  0  0  0  0  0  0
    1.6000   -2.7713    0.0000 H   0  0  0  0  0  0  0  0  0  0  0  0
   -1.6000   -0.0000    0.0000 C   0  0  0  0  0  0  0  0  0  0  0  0
   -3.2000   -0.0000    0.0000 H   0  0  0  0  0  0  0  0  0  0  0  0
   -2.6284    1.2256    0.0000 H   0  0  0  0  0  0  0  0  0  0  0  0
   -2.6284   -1.2256    0.0000 H   0  0  0  0  0  0  0  0  0  0  0  0
    0.0001    1.6000    0.0000 C   0  0  0  0  0  0  0  0  0  0  0  0
    0.2778    3.1757    0.0000 H   0  0  0  0  0  0  0  0  0  0  0  0
   -1.2257    2.6285    0.0000 H   0  0  0  0  0  0  0  0  0  0  0  0
   -1.5036    1.0527    0.0000 H   0  0  0  0  0  0  0  0  0  0  0  0
    0.0001   -1.6000    0.0000 C   0  0  0  0  0  0  0  0  0  0  0  0
    0.2778   -3.1757    0.0000 H   0  0  0  0  0  0  0  0  0  0  0  0
   -1.2257   -2.6285    0.0000 H   0  0  0  0  0  0  0  0  0  0  0  0
   -1.5036   -1.0527    0.0000 H   0  0  0  0  0  0  0  0  0  0  0  0
  1  2  1  0  0  0  0
  2  3  1  0  0  0  0
  3  4  1  0  0  0  0
  3  5  2  0  0  0  0
  5  6  1  0  0  0  0
  5  7  1  0  0  0  0
  7  8  1  0  0  0  0
  8  9  1  0  0  0  0
  7 10  2  0  0  0  0
 10 11  1  0  0  0  0
 10 12  1  0  0  0  0
 12  2  2  0  0  0  0
 12 13  1  0  0  0  0
  1 14  1  0  0  0  0
 14 15  1  0  0  0  0
 14 16  1  0  0  0  0
 14 17  1  0  0  0  0
  1 18  1  0  0  0  0
 18 19  1  0  0  0  0
 18 20  1  0  0  0  0
 18 21  1  0  0  0  0
  1 22  1  0  0  0  0
 22 23  1  0  0  0  0
 22 24  1  0  0  0  0
 22 25  1  0  0  0  0
M  END
> <ChemID>
100591

> <source_casrn>
98-54-4

> <CAS>
98-54-4

> <SMILES>
CC(C)(C)c1ccc(O)cc1

> <NAME>
P-T-BUTYLYPHENOL

> <preferred_name>
4-tert-Butylphenol

> <iupac>
4-tert-butylphenol

> <MPID>
19666

> <dsstox_substance_id>
DTXSID1020221

> <Canonical_QSARr>
CC(C)(C)c1ccc(O)cc1

> <InChI_Code_QSARr>
InChI=1S/C10H14O/c1-10(2,3)8-4-6-9(11)7-5-8/h4-7,11H,1-3H3

> <InChI Key_QSARr>
QHPQWRBYOIRBIT-UHFFFAOYSA-N

> <Salt_Solvent>
?

> <BP>
237.0

$$$$
100595
  -INDIGO-08031720192D

 19 19  0  0  0  0  0  0  0  0999 V2000
    1.6000   -0.0000    0.0000 C   0  0  0  0  0  0  0  0  0  0  0  0
    2.4001   -1.3856    0.0000 C   0  0  0  0  0  0  0  0  0  0  0  0
    3.2000   -2.7713    0.0000 H   0  0  0  0  0  0  0  0  0  0  0  0
    4.0000   -1.3856    0.0000 H   0  0  0  0  0  0  0  0  0  0  0  0
    1.6000   -2.7713    0.0000 H   0  0  0  0  0  0  0  0  0  0  0  0
    2.4001    1.3856    0.0000 C   0  0  0  0  0  0  0  0  0  0  0  0
    4.0000    1.3856    0.0000 H   0  0  0  0  0  0  0  0  0  0  0  0
    1.6000    2.7713    0.0000 H   0  0  0  0  0  0  0  0  0  0  0  0
   -0.0000    0.0000    0.0000 C   0  0  0  0  0  0  0  0  0  0  0  0
   -0.8000    1.3856    0.0000 C   0  0  0  0  0  0  0  0  0  0  0  0
   -0.0000    2.7713    0.0000 H   0  0  0  0  0  0  0  0  0  0  0  0
   -2.4000    1.3856    0.0000 C   0  0  0  0  0  0  0  0  0  0  0  0
   -3.2001    2.7713    0.0000 H   0  0  0  0  0  0  0  0  0  0  0  0
   -3.2001    0.0000    0.0000 C   0  0  0  0  0  0  0  0  0  0  0  0
   -4.8000   -0.0000    0.0000 H   0  0  0  0  0  0  0  0  0  0  0  0
   -2.4000   -1.3856    0.0000 C   0  0  0  0  0  0  0  0  0  0  0  0
   -3.2001   -2.7713    0.0000 H   0  0  0  0  0  0  0  0  0  0  0  0
   -0.8000   -1.3856    0.0000 C   0  0  0  0  0  0  0  0  0  0  0  0
   -0.0000   -2.7713    0.0000 H   0  0  0  0  0  0  0  0  0  0  0  0
  1  2  1  0  0  0  0
  2  3  1  0  0  0  0
  2  4  1  0  0  0  0
  2  5  1  0  0  0  0
  1  6  2  0  0  0  0
  6  7  1  0  0  0  0
  6  8  1  0  0  0  0
  1  9  1  0  0  0  0
  9 10  1  0  0  0  0
 10 11  1  0  0  0  0
 10 12  2  0  0  0  0
 12 13  1  0  0  0  0
 12 14  1  0  0  0  0
 14 15  1  0  0  0  0
 14 16  2  0  0  0  0
 16 17  1  0  0  0  0
 16 18  1  0  0  0  0
 18  9  2  0  0  0  0
 18 19  1  0  0  0  0
M  END
> <ChemID>
100595

> <source_casrn>
98-83-9

> <CAS>
98-83-9

> <SMILES>
CC(=C)c1ccccc1

> <NAME>
ALPHA-METHYLSTYRENE

> <preferred_name>
alpha-Methylstyrene

> <iupac>
prop-1-en-2-ylbenzene

> <MPID>
19670

> <dsstox_substance_id>
DTXSID9025661

> <Canonical_QSARr>
CC(=C)c1ccccc1

> <InChI_Code_QSARr>
InChI=1S/C9H10/c1-8(2)9-6-4-3-5-7-9/h3-7H,1H2,2H3

> <InChI Key_QSARr>
XYLMUPLGERFSHI-UHFFFAOYSA-N

> <Salt_Solvent>
?

> <BP>
165.4

$$$$
100599
  -INDIGO-08031720192D

 15 15  0  0  0  0  0  0  0  0999 V2000
    0.0000   -0.0000    0.0000 C   0  0  0  0  0  0  0  0  0  0  0  0
   -0.8001    1.3856    0.0000 C   0  0  0  0  0  0  0  0  0  0  0  0
    0.0000    2.7713    0.0000 H   0  0  0  0  0  0  0  0  0  0  0  0
   -2.4001    1.3856    0.0000 C   0  0  0  0  0  0  0  0  0  0  0  0
   -3.2000    2.7713    0.0000 H   0  0  0  0  0  0  0  0  0  0  0  0
   -3.2000   -0.0000    0.0000 C   0  0  0  0  0  0  0  0  0  0  0  0
   -4.8000   -0.0000    0.0000 H   0  0  0  0  0  0  0  0  0  0  0  0
   -2.4001   -1.3856    0.0000 C   0  0  0  0  0  0  0  0  0  0  0  0
   -3.2000   -2.7713    0.0000 H   0  0  0  0  0  0  0  0  0  0  0  0
   -0.8001   -1.3856    0.0000 C   0  0  0  0  0  0  0  0  0  0  0  0
    0.0000   -2.7713    0.0000 H   0  0  0  0  0  0  0  0  0  0  0  0
    1.6000   -0.0000    0.0000 C   0  0  0  0  0  0  0  0  0  0  0  0
    3.2000   -0.0000    0.0000 H   0  0  0  0  0  0  0  0  0  0  0  0
    2.4001   -1.3856    0.0000 Cl  0  0  0  0  0  0  0  0  0  0  0  0
    2.4001    1.3856    0.0000 Cl  0  0  0  0  0  0  0  0  0  0  0  0
  1  2  1  0  0  0  0
  2  3  1  0  0  0  0
  2  4  2  0  0  0  0
  4  5  1  0  0  0  0
  4  6  1  0  0  0  0
  6  7  1  0  0  0  0
  6  8  2  0  0  0  0
  8  9  1  0  0  0  0
  8 10  1  0  0  0  0
 10  1  2  0  0  0  0
 10 11  1  0  0  0  0
  1 12  1  0  0  0  0
 12 13  1  0  0  0  0
 12 14  1  0  0  0  0
 12 15  1  0  0  0  0
M  END
> <ChemID>
100599

> <source_casrn>
98-87-3

> <CAS>
98-87-3

> <SMILES>
ClC(Cl)c1ccccc1

> <NAME>
(DICHLOROMETHYL)BENZENE

> <preferred_name>
Benzal chloride

> <iupac>
(dichloromethyl)benzene

> <MPID>
19674

> <dsstox_substance_id>
DTXSID6025014

> <Canonical_QSARr>
ClC(Cl)c1ccccc1

> <InChI_Code_QSARr>
InChI=1S/C7H6Cl2/c8-7(9)6-4-2-1-3-5-6/h1-5,7H

> <InChI Key_QSARr>
CAHQGWAXKLQREW-UHFFFAOYSA-N

> <Salt_Solvent>
?

> <BP>
205.0

$$$$
100603
  -INDIGO-08031720192D

 14 14  0  0  0  0  0  0  0  0999 V2000
   -2.4000   -1.3856    0.0000 O   0  0  0  0  0  0  0  0  0  0  0  0
   -1.6000   -0.0000    0.0000 N   0  0  0  0  0  0  0  0  0  0  0  0
    0.0000   -0.0000    0.0000 C   0  0  0  0  0  0  0  0  0  0  0  0
    0.8000    1.3856    0.0000 C   0  0  0  0  0  0  0  0  0  0  0  0
    0.0000    2.7713    0.0000 H   0  0  0  0  0  0  0  0  0  0  0  0
    2.4000    1.3856    0.0000 C   0  0  0  0  0  0  0  0  0  0  0  0
    3.2000    2.7713    0.0000 H   0  0  0  0  0  0  0  0  0  0  0  0
    3.2000   -0.0000    0.0000 C   0  0  0  0  0  0  0  0  0  0  0  0
    4.8000   -0.0000    0.0000 H   0  0  0  0  0  0  0  0  0  0  0  0
    2.4000   -1.3856    0.0000 C   0  0  0  0  0  0  0  0  0  0  0  0
    3.2000   -2.7713    0.0000 H   0  0  0  0  0  0  0  0  0  0  0  0
    0.8000   -1.3856    0.0000 C   0  0  0  0  0  0  0  0  0  0  0  0
    0.0000   -2.7713    0.0000 H   0  0  0  0  0  0  0  0  0  0  0  0
   -2.4000    1.3856    0.0000 O   0  0  0  0  0  0  0  0  0  0  0  0
  1  2  2  0  0  0  0
  2  3  1  0  0  0  0
  3  4  1  0  0  0  0
  4  5  1  0  0  0  0
  4  6  2  0  0  0  0
  6  7  1  0  0  0  0
  6  8  1  0  0  0  0
  8  9  1  0  0  0  0
  8 10  2  0  0  0  0
 10 11  1  0  0  0  0
 10 12  1  0  0  0  0
 12  3  2  0  0  0  0
 12 13  1  0  0  0  0
  2 14  1  0  0  0  0
M  CHG  2   2   1  14  -1
M  END
> <ChemID>
100603

> <source_casrn>
98-95-3

> <CAS>
98-95-3

> <SMILES>
[O-][N+](=O)c1ccccc1

> <NAME>
NITROBENZENE

> <preferred_name>
Nitrobenzene

> <iupac>
nitrobenzene

> <MPID>
19678

> <dsstox_substance_id>
DTXSID3020964

> <Canonical_QSARr>
[O-][N+](=O)c1ccccc1

> <InChI_Code_QSARr>
InChI=1S/C6H5NO2/c8-7(9)6-4-2-1-3-5-6/h1-5H

> <InChI Key_QSARr>
LQNUZADURLCDLV-UHFFFAOYSA-N

> <Salt_Solvent>
?

> <BP>
210.8

$$$$
100607
  -INDIGO-08031720192D

 17 17  0  0  0  0  0  0  0  0999 V2000
    1.3857    0.8000    0.0000 C   0  0  0  0  0  0  0  0  0  0  0  0
    2.7713    1.6000    0.0000 H   0  0  0  0  0  0  0  0  0  0  0  0
    2.7713   -0.0000    0.0000 H   0  0  0  0  0  0  0  0  0  0  0  0
    1.3857    2.4000    0.0000 H   0  0  0  0  0  0  0  0  0  0  0  0
    0.0000   -0.0000    0.0000 C   0  0  0  0  0  0  0  0  0  0  0  0
   -1.3857    0.8000    0.0000 C   0  0  0  0  0  0  0  0  0  0  0  0
   -1.3857    2.4000    0.0000 H   0  0  0  0  0  0  0  0  0  0  0  0
   -2.7713   -0.0000    0.0000 C   0  0  0  0  0  0  0  0  0  0  0  0
   -4.1570    0.8000    0.0000 N   0  0  0  0  0  0  0  0  0  0  0  0
   -5.5426   -0.0000    0.0000 O   0  0  0  0  0  0  0  0  0  0  0  0
   -4.1569    2.4000    0.0000 O   0  0  0  0  0  0  0  0  0  0  0  0
   -2.7713   -1.6000    0.0000 C   0  0  0  0  0  0  0  0  0  0  0  0
   -4.1569   -2.4000    0.0000 H   0  0  0  0  0  0  0  0  0  0  0  0
   -1.3856   -2.4000    0.0000 C   0  0  0  0  0  0  0  0  0  0  0  0
   -1.3856   -4.0000    0.0000 H   0  0  0  0  0  0  0  0  0  0  0  0
    0.0000   -1.6000    0.0000 C   0  0  0  0  0  0  0  0  0  0  0  0
    1.3857   -2.4000    0.0000 H   0  0  0  0  0  0  0  0  0  0  0  0
  1  2  1  0  0  0  0
  1  3  1  0  0  0  0
  1  4  1  0  0  0  0
  1  5  1  0  0  0  0
  5  6  1  0  0  0  0
  6  7  1  0  0  0  0
  6  8  2  0  0  0  0
  8  9  1  0  0  0  0
  9 10  2  0  0  0  0
  9 11  1  0  0  0  0
  8 12  1  0  0  0  0
 12 13  1  0  0  0  0
 12 14  2  0  0  0  0
 14 15  1  0  0  0  0
 14 16  1  0  0  0  0
 16  5  2  0  0  0  0
 16 17  1  0  0  0  0
M  CHG  2   9   1  11  -1
M  END
> <ChemID>
100607

> <source_casrn>
99-08-1

> <CAS>
99-08-1

> <SMILES>
Cc1cc(ccc1)[N+]([O-])=O

> <NAME>
3-NITROTOLUENE

> <preferred_name>
3-Nitrotoluene

> <iupac>
1-methyl-3-nitrobenzene

> <MPID>
19682

> <dsstox_substance_id>
DTXSID5021831

> <Canonical_QSARr>
Cc1cc(ccc1)[N+]([O-])=O

> <InChI_Code_QSARr>
InChI=1S/C7H7NO2/c1-6-3-2-4-7(5-6)8(9)10/h2-5H,1H3

> <InChI Key_QSARr>
QZYHIOPPLUPUJF-UHFFFAOYSA-N

> <Salt_Solvent>
?

> <BP>
232.0

$$$$
100611
  -INDIGO-08031720192D

 21 21  0  0  0  0  0  0  0  0999 V2000
   -2.7712   -0.0000    0.0000 C   0  0  0  0  0  0  0  0  0  0  0  0
   -1.3857    0.8000    0.0000 C   0  0  0  0  0  0  0  0  0  0  0  0
   -1.3857    2.4000    0.0000 H   0  0  0  0  0  0  0  0  0  0  0  0
   -0.0000   -0.0000    0.0000 C   0  0  0  0  0  0  0  0  0  0  0  0
    1.3856    0.8000    0.0000 C   0  0  0  0  0  0  0  0  0  0  0  0
    2.7713    1.6000    0.0000 H   0  0  0  0  0  0  0  0  0  0  0  0
    2.7713   -0.0000    0.0000 H   0  0  0  0  0  0  0  0  0  0  0  0
    1.3856    2.4000    0.0000 H   0  0  0  0  0  0  0  0  0  0  0  0
   -0.0000   -1.6000    0.0000 C   0  0  0  0  0  0  0  0  0  0  0  0
    1.3856   -2.4000    0.0000 H   0  0  0  0  0  0  0  0  0  0  0  0
   -1.3857   -2.4000    0.0000 C   0  0  0  0  0  0  0  0  0  0  0  0
   -1.3857   -4.0000    0.0000 H   0  0  0  0  0  0  0  0  0  0  0  0
   -2.7712   -1.6000    0.0000 C   0  0  0  0  0  0  0  0  0  0  0  0
   -4.1569   -2.4000    0.0000 H   0  0  0  0  0  0  0  0  0  0  0  0
   -4.1569    0.8000    0.0000 C   0  0  0  0  0  0  0  0  0  0  0  0
   -5.5425   -0.0000    0.0000 O   0  0  0  0  0  0  0  0  0  0  0  0
   -6.9282    0.8000    0.0000 C   0  0  0  0  0  0  0  0  0  0  0  0
   -8.3138    1.6000    0.0000 H   0  0  0  0  0  0  0  0  0  0  0  0
   -8.3138   -0.0000    0.0000 H   0  0  0  0  0  0  0  0  0  0  0  0
   -6.9282    2.4000    0.0000 H   0  0  0  0  0  0  0  0  0  0  0  0
   -4.1569    2.4000    0.0000 O   0  0  0  0  0  0  0  0  0  0  0  0
  1  2  1  0  0  0  0
  2  3  1  0  0  0  0
  2  4  2  0  0  0  0
  4  5  1  0  0  0  0
  5  6  1  0  0  0  0
  5  7  1  0  0  0  0
  5  8  1  0  0  0  0
  4  9  1  0  0  0  0
  9 10  1  0  0  0  0
  9 11  2  0  0  0  0
 11 12  1  0  0  0  0
 11 13  1  0  0  0  0
 13  1  2  0  0  0  0
 13 14  1  0  0  0  0
  1 15  1  0  0  0  0
 15 16  1  0  0  0  0
 16 17  1  0  0  0  0
 17 18  1  0  0  0  0
 17 19  1  0  0  0  0
 17 20  1  0  0  0  0
 15 21  2  0  0  0  0
M  END
> <ChemID>
100611

> <source_casrn>
99-36-5

> <CAS>
99-36-5

> <SMILES>
Cc1cc(ccc1)C(=O)OC

> <NAME>
BENZOIC ACID, 3-METHYL-, METHYL ESTER

> <preferred_name>
Benzoic acid, 3-methyl-, methyl ester

> <iupac>
Methyl 3-methylbenzoate

> <MPID>
19686

> <dsstox_substance_id>
DTXSID2059196

> <Canonical_QSARr>
Cc1cc(ccc1)C(=O)OC

> <InChI_Code_QSARr>
InChI=1S/C9H10O2/c1-7-4-3-5-8(6-7)9(10)11-2/h3-6H,1-2H3

> <InChI Key_QSARr>
CPXCDEMFNPKOEF-UHFFFAOYSA-N

> <Salt_Solvent>
?

> <BP>
221.0

$$$$
100615
  -INDIGO-08031720192D

 14 14  0  0  0  0  0  0  0  0999 V2000
    1.6000   -0.0000    0.0000 N   0  0  0  0  0  0  0  0  0  0  0  0
    2.4000    1.3856    0.0000 O   0  0  0  0  0  0  0  0  0  0  0  0
    2.4000   -1.3856    0.0000 O   0  0  0  0  0  0  0  0  0  0  0  0
    0.0000   -0.0000    0.0000 C   0  0  0  0  0  0  0  0  0  0  0  0
   -0.8000    1.3856    0.0000 C   0  0  0  0  0  0  0  0  0  0  0  0
    0.0000    2.7713    0.0000 H   0  0  0  0  0  0  0  0  0  0  0  0
   -2.4000    1.3856    0.0000 C   0  0  0  0  0  0  0  0  0  0  0  0
   -3.2000    2.7713    0.0000 H   0  0  0  0  0  0  0  0  0  0  0  0
   -3.2000   -0.0000    0.0000 C   0  0  0  0  0  0  0  0  0  0  0  0
   -4.8000   -0.0000    0.0000 Cl  0  0  0  0  0  0  0  0  0  0  0  0
   -2.4000   -1.3856    0.0000 C   0  0  0  0  0  0  0  0  0  0  0  0
   -3.2000   -2.7713    0.0000 Cl  0  0  0  0  0  0  0  0  0  0  0  0
   -0.8000   -1.3856    0.0000 C   0  0  0  0  0  0  0  0  0  0  0  0
    0.0000   -2.7713    0.0000 H   0  0  0  0  0  0  0  0  0  0  0  0
  1  2  2  0  0  0  0
  1  3  1  0  0  0  0
  1  4  1  0  0  0  0
  4  5  1  0  0  0  0
  5  6  1  0  0  0  0
  5  7  2  0  0  0  0
  7  8  1  0  0  0  0
  7  9  1  0  0  0  0
  9 10  1  0  0  0  0
  9 11  2  0  0  0  0
 11 12  1  0  0  0  0
 11 13  1  0  0  0  0
 13  4  2  0  0  0  0
 13 14  1  0  0  0  0
M  CHG  2   1   1   3  -1
M  END
> <ChemID>
100615

> <source_casrn>
99-54-7

> <CAS>
99-54-7

> <SMILES>
[O-][N+](=O)c1cc(Cl)c(Cl)cc1

> <NAME>
3,4-DICHLORONITROBENZENE

> <preferred_name>
3,4-Dichloronitrobenzene

> <iupac>
1,2-dichloro-4-nitrobenzene

> <MPID>
19690

> <dsstox_substance_id>
DTXSID8024999

> <Canonical_QSARr>
[O-][N+](=O)c1cc(Cl)c(Cl)cc1

> <InChI_Code_QSARr>
InChI=1S/C6H3Cl2NO2/c7-5-2-1-4(9(10)11)3-6(5)8/h1-3H

> <InChI Key_QSARr>
NTBYINQTYWZXLH-UHFFFAOYSA-N

> <Salt_Solvent>
?

> <BP>
255.5

$$$$
100619
  -INDIGO-08031720192D

 26 25  0  0  0  0  0  0  0  0999 V2000
    0.0001    1.6000    0.0000 C   0  0  0  0  0  0  0  0  0  0  0  0
    1.2256    2.6284    0.0000 O   0  0  0  0  0  0  0  0  0  0  0  0
   -1.2256    2.6284    0.0000 O   0  0  0  0  0  0  0  0  0  0  0  0
   -0.9479    4.2042    0.0000 H   0  0  0  0  0  0  0  0  0  0  0  0
    0.0001    0.0000    0.0000 C   0  0  0  0  0  0  0  0  0  0  0  0
    0.0001   -1.6000    0.0000 H   0  0  0  0  0  0  0  0  0  0  0  0
   -1.6001    0.0000    0.0000 C   0  0  0  0  0  0  0  0  0  0  0  0
   -2.8693    0.9740    0.0000 H   0  0  0  0  0  0  0  0  0  0  0  0
   -1.8089    1.5863    0.0000 H   0  0  0  0  0  0  0  0  0  0  0  0
   -2.4000   -1.3856    0.0000 C   0  0  0  0  0  0  0  0  0  0  0  0
   -1.1306   -2.3596    0.0000 H   0  0  0  0  0  0  0  0  0  0  0  0
   -2.1912   -2.9720    0.0000 H   0  0  0  0  0  0  0  0  0  0  0  0
   -4.0000   -1.3856    0.0000 C   0  0  0  0  0  0  0  0  0  0  0  0
   -5.6000   -1.3856    0.0000 H   0  0  0  0  0  0  0  0  0  0  0  0
   -4.8000   -2.7712    0.0000 H   0  0  0  0  0  0  0  0  0  0  0  0
   -4.8000    0.0000    0.0000 H   0  0  0  0  0  0  0  0  0  0  0  0
    1.6001    0.0000    0.0000 C   0  0  0  0  0  0  0  0  0  0  0  0
    1.8089    1.5863    0.0000 H   0  0  0  0  0  0  0  0  0  0  0  0
    2.8693    0.9740    0.0000 H   0  0  0  0  0  0  0  0  0  0  0  0
    2.4000   -1.3856    0.0000 C   0  0  0  0  0  0  0  0  0  0  0  0
    2.1912   -2.9720    0.0000 H   0  0  0  0  0  0  0  0  0  0  0  0
    1.1306   -2.3596    0.0000 H   0  0  0  0  0  0  0  0  0  0  0  0
    4.0000   -1.3856    0.0000 C   0  0  0  0  0  0  0  0  0  0  0  0
    5.6000   -1.3856    0.0000 H   0  0  0  0  0  0  0  0  0  0  0  0
    4.8000   -2.7712    0.0000 H   0  0  0  0  0  0  0  0  0  0  0  0
    4.8000    0.0000    0.0000 H   0  0  0  0  0  0  0  0  0  0  0  0
  1  2  2  0  0  0  0
  1  3  1  0  0  0  0
  3  4  1  0  0  0  0
  1  5  1  0  0  0  0
  5  6  1  0  0  0  0
  5  7  1  0  0  0  0
  7  8  1  0  0  0  0
  7  9  1  0  0  0  0
  7 10  1  0  0  0  0
 10 11  1  0  0  0  0
 10 12  1  0  0  0  0
 10 13  1  0  0  0  0
 13 14  1  0  0  0  0
 13 15  1  0  0  0  0
 13 16  1  0  0  0  0
  5 17  1  0  0  0  0
 17 18  1  0  0  0  0
 17 19  1  0  0  0  0
 17 20  1  0  0  0  0
 20 21  1  0  0  0  0
 20 22  1  0  0  0  0
 20 23  1  0  0  0  0
 23 24  1  0  0  0  0
 23 25  1  0  0  0  0
 23 26  1  0  0  0  0
M  END
> <ChemID>
100619

> <source_casrn>
99-66-1

> <CAS>
99-66-1

> <SMILES>
CCCC(CCC)C(O)=O

> <NAME>
VALPROIC ACID

> <preferred_name>
Valproic acid

> <iupac>
C8H16O2

> <MPID>
19694

> <dsstox_substance_id>
DTXSID6023733

> <Canonical_QSARr>
CCCC(CCC)C(O)=O

> <InChI_Code_QSARr>
InChI=1S/C8H16O2/c1-3-5-7(6-4-2)8(9)10/h7H,3-6H2,1-2H3,(H,9,10)

> <InChI Key_QSARr>
NIJJYAXOARWZEE-UHFFFAOYSA-N

> <Salt_Solvent>
?

> <BP>
222.0

$$$$
100623
  -INDIGO-08031720192D

 30 30  0  0  0  0  0  0  0  0999 V2000
    4.3713    1.6000    0.0000 C   0  0  0  0  0  0  0  0  0  0  0  0
    5.9713    1.6000    0.0000 H   0  0  0  0  0  0  0  0  0  0  0  0
    5.1713    2.9856    0.0000 H   0  0  0  0  0  0  0  0  0  0  0  0
    5.1713    0.2143    0.0000 H   0  0  0  0  0  0  0  0  0  0  0  0
    2.7713    1.6000    0.0000 C   0  0  0  0  0  0  0  0  0  0  0  0
    3.3185    3.1035    0.0000 H   0  0  0  0  0  0  0  0  0  0  0  0
    2.7713   -0.0000    0.0000 C   0  0  0  0  0  0  0  0  0  0  0  0
    4.3469    0.2778    0.0000 H   0  0  0  0  0  0  0  0  0  0  0  0
    3.3185   -1.5035    0.0000 H   0  0  0  0  0  0  0  0  0  0  0  0
    1.3857   -0.8000    0.0000 C   0  0  0  0  0  0  0  0  0  0  0  0
    2.4141   -2.0257    0.0000 H   0  0  0  0  0  0  0  0  0  0  0  0
    0.3572   -2.0257    0.0000 H   0  0  0  0  0  0  0  0  0  0  0  0
   -0.0000   -0.0000    0.0000 C   0  0  0  0  0  0  0  0  0  0  0  0
   -0.5472   -1.5035    0.0000 H   0  0  0  0  0  0  0  0  0  0  0  0
   -1.5758    0.2778    0.0000 C   0  0  0  0  0  0  0  0  0  0  0  0
   -1.5758    1.3222    0.0000 H   0  0  0  0  0  0  0  0  0  0  0  0
   -2.9613    1.0778    0.0000 C   0  0  0  0  0  0  0  0  0  0  0  0
   -4.3470    1.8778    0.0000 H   0  0  0  0  0  0  0  0  0  0  0  0
   -4.3470    0.2778    0.0000 H   0  0  0  0  0  0  0  0  0  0  0  0
   -2.9613    2.6779    0.0000 H   0  0  0  0  0  0  0  0  0  0  0  0
   -2.3757   -1.1078    0.0000 C   0  0  0  0  0  0  0  0  0  0  0  0
   -3.1757   -2.4934    0.0000 H   0  0  0  0  0  0  0  0  0  0  0  0
   -1.5758   -2.4934    0.0000 H   0  0  0  0  0  0  0  0  0  0  0  0
   -3.9757   -1.1078    0.0000 H   0  0  0  0  0  0  0  0  0  0  0  0
   -0.0000    1.6000    0.0000 C   0  0  0  0  0  0  0  0  0  0  0  0
   -1.0285    1.7813    0.0000 H   0  0  0  0  0  0  0  0  0  0  0  0
   -0.5472    3.1035    0.0000 H   0  0  0  0  0  0  0  0  0  0  0  0
    1.3857    2.4000    0.0000 C   0  0  0  0  0  0  0  0  0  0  0  0
    0.3572    3.6257    0.0000 H   0  0  0  0  0  0  0  0  0  0  0  0
    2.4141    3.6257    0.0000 H   0  0  0  0  0  0  0  0  0  0  0  0
  1  2  1  0  0  0  0
  1  3  1  0  0  0  0
  1  4  1  0  0  0  0
  1  5  1  0  0  0  0
  5  6  1  0  0  0  0
  5  7  1  0  0  0  0
  7  8  1  0  0  0  0
  7  9  1  0  0  0  0
  7 10  1  0  0  0  0
 10 11  1  0  0  0  0
 10 12  1  0  0  0  0
 10 13  1  0  0  0  0
 13 14  1  0  0  0  0
 13 15  1  0  0  0  0
 15 16  1  0  0  0  0
 15 17  1  0  0  0  0
 17 18  1  0  0  0  0
 17 19  1  0  0  0  0
 17 20  1  0  0  0  0
 15 21  1  0  0  0  0
 21 22  1  0  0  0  0
 21 23  1  0  0  0  0
 21 24  1  0  0  0  0
 13 25  1  0  0  0  0
 25 26  1  0  0  0  0
 25 27  1  0  0  0  0
 25 28  1  0  0  0  0
 28  5  1  0  0  0  0
 28 29  1  0  0  0  0
 28 30  1  0  0  0  0
M  END
> <ChemID>
100623

> <source_casrn>
99-82-1|1678-82-6|6069-98-3

> <CAS>
99-82-1

> <SMILES>
CC(C)C1CCC(C)CC1

> <NAME>
P-MENTHANE, Cyclohexane, 1-methyl-4-(1-methylethyl)-, trans-, Cyclohexane, 1-methyl-4-(1-methylethyl)-, cis-

> <preferred_name>
p-Menthane

> <iupac>
1-methyl-4-(propan-2-yl)cyclohexane

> <MPID>
19698|22887|23876

> <dsstox_substance_id>
DTXSID9025530

> <Canonical_QSARr>
CC(C)C1CCC(C)CC1

> <InChI_Code_QSARr>
InChI=1S/C10H20/c1-8(2)10-6-4-9(3)5-7-10/h8-10H,4-7H2,1-3H3

> <InChI Key_QSARr>
CFJYNSNXFXLKNS-UHFFFAOYSA-N

> <Salt_Solvent>
?

> <BP>
171.1

$$$$
100627
  -INDIGO-08031720192D

 26 26  0  0  0  0  0  0  0  0999 V2000
   -1.6000   -0.0000    0.0000 C   0  0  0  0  0  0  0  0  0  0  0  0
   -2.4001    1.3857    0.0000 C   0  0  0  0  0  0  0  0  0  0  0  0
   -1.6000    2.7713    0.0000 H   0  0  0  0  0  0  0  0  0  0  0  0
   -4.0001    1.3857    0.0000 C   0  0  0  0  0  0  0  0  0  0  0  0
   -4.8000    2.7713    0.0000 H   0  0  0  0  0  0  0  0  0  0  0  0
   -4.8000   -0.0000    0.0000 C   0  0  0  0  0  0  0  0  0  0  0  0
   -6.4000   -0.0000    0.0000 C   0  0  0  0  0  0  0  0  0  0  0  0
   -8.0000   -0.0000    0.0000 H   0  0  0  0  0  0  0  0  0  0  0  0
   -7.2001    1.3857    0.0000 H   0  0  0  0  0  0  0  0  0  0  0  0
   -7.2001   -1.3856    0.0000 H   0  0  0  0  0  0  0  0  0  0  0  0
   -4.0001   -1.3856    0.0000 C   0  0  0  0  0  0  0  0  0  0  0  0
   -5.5034   -1.9329    0.0000 H   0  0  0  0  0  0  0  0  0  0  0  0
   -3.7222   -2.9613    0.0000 H   0  0  0  0  0  0  0  0  0  0  0  0
   -2.4001   -1.3856    0.0000 C   0  0  0  0  0  0  0  0  0  0  0  0
   -2.6778   -2.9613    0.0000 H   0  0  0  0  0  0  0  0  0  0  0  0
   -1.0143   -2.1856    0.0000 H   0  0  0  0  0  0  0  0  0  0  0  0
    0.0000   -0.0000    0.0000 C   0  0  0  0  0  0  0  0  0  0  0  0
    0.0000   -1.6000    0.0000 H   0  0  0  0  0  0  0  0  0  0  0  0
    1.5757   -0.2778    0.0000 C   0  0  0  0  0  0  0  0  0  0  0  0
    3.1514   -0.5557    0.0000 H   0  0  0  0  0  0  0  0  0  0  0  0
    2.6042    0.9478    0.0000 H   0  0  0  0  0  0  0  0  0  0  0  0
    2.1229   -1.7813    0.0000 H   0  0  0  0  0  0  0  0  0  0  0  0
    0.0000    1.6000    0.0000 C   0  0  0  0  0  0  0  0  0  0  0  0
    0.0000    3.2000    0.0000 H   0  0  0  0  0  0  0  0  0  0  0  0
    1.3856    2.4000    0.0000 H   0  0  0  0  0  0  0  0  0  0  0  0
    1.3856    0.8000    0.0000 H   0  0  0  0  0  0  0  0  0  0  0  0
  1  2  2  0  0  0  0
  2  3  1  0  0  0  0
  2  4  1  0  0  0  0
  4  5  1  0  0  0  0
  4  6  2  0  0  0  0
  6  7  1  0  0  0  0
  7  8  1  0  0  0  0
  7  9  1  0  0  0  0
  7 10  1  0  0  0  0
  6 11  1  0  0  0  0
 11 12  1  0  0  0  0
 11 13  1  0  0  0  0
 11 14  1  0  0  0  0
 14  1  1  0  0  0  0
 14 15  1  0  0  0  0
 14 16  1  0  0  0  0
  1 17  1  0  0  0  0
 17 18  1  0  0  0  0
 17 19  1  0  0  0  0
 19 20  1  0  0  0  0
 19 21  1  0  0  0  0
 19 22  1  0  0  0  0
 17 23  1  0  0  0  0
 23 24  1  0  0  0  0
 23 25  1  0  0  0  0
 23 26  1  0  0  0  0
M  END
> <ChemID>
100627

> <source_casrn>
99-86-5

> <CAS>
99-86-5

> <SMILES>
CC1CCC(=CC=1)C(C)C

> <NAME>
alpha-Terpinene

> <preferred_name>
alpha-Terpinene

> <iupac>
1-methyl-4-(propan-2-yl)cyclohexa-1,3-diene

> <MPID>
19702

> <dsstox_substance_id>
DTXSID9041237

> <Canonical_QSARr>
CC1CCC(=CC=1)C(C)C

> <InChI_Code_QSARr>
InChI=1S/C10H16/c1-8(2)10-6-4-9(3)5-7-10/h4,6,8H,5,7H2,1-3H3

> <InChI Key_QSARr>
YHQGMYUVUMAZJR-UHFFFAOYSA-N

> <Salt_Solvent>
?

> <BP>
175.0

$$$$
100631
  -INDIGO-08031720192D

 17 17  0  0  0  0  0  0  0  0999 V2000
    0.0001   -0.0000    0.0000 C   0  0  0  0  0  0  0  0  0  0  0  0
    1.3856    0.8000    0.0000 C   0  0  0  0  0  0  0  0  0  0  0  0
    2.7713   -0.0000    0.0000 C   0  0  0  0  0  0  0  0  0  0  0  0
    4.1569   -0.8000    0.0000 H   0  0  0  0  0  0  0  0  0  0  0  0
    4.1569    0.8000    0.0000 H   0  0  0  0  0  0  0  0  0  0  0  0
    2.7713   -1.6000    0.0000 H   0  0  0  0  0  0  0  0  0  0  0  0
    1.3856    2.4000    0.0000 O   0  0  0  0  0  0  0  0  0  0  0  0
    0.0001   -1.6000    0.0000 C   0  0  0  0  0  0  0  0  0  0  0  0
    1.3856   -2.4000    0.0000 H   0  0  0  0  0  0  0  0  0  0  0  0
   -1.3856   -2.4000    0.0000 C   0  0  0  0  0  0  0  0  0  0  0  0
   -1.3856   -4.0000    0.0000 H   0  0  0  0  0  0  0  0  0  0  0  0
   -2.7712   -1.6000    0.0000 C   0  0  0  0  0  0  0  0  0  0  0  0
   -4.1569   -2.4000    0.0000 Br  0  0  0  0  0  0  0  0  0  0  0  0
   -2.7712   -0.0000    0.0000 C   0  0  0  0  0  0  0  0  0  0  0  0
   -4.1569    0.8000    0.0000 H   0  0  0  0  0  0  0  0  0  0  0  0
   -1.3856    0.8000    0.0000 C   0  0  0  0  0  0  0  0  0  0  0  0
   -1.3856    2.4000    0.0000 H   0  0  0  0  0  0  0  0  0  0  0  0
  1  2  1  0  0  0  0
  2  3  1  0  0  0  0
  3  4  1  0  0  0  0
  3  5  1  0  0  0  0
  3  6  1  0  0  0  0
  2  7  2  0  0  0  0
  1  8  1  0  0  0  0
  8  9  1  0  0  0  0
  8 10  2  0  0  0  0
 10 11  1  0  0  0  0
 10 12  1  0  0  0  0
 12 13  1  0  0  0  0
 12 14  2  0  0  0  0
 14 15  1  0  0  0  0
 14 16  1  0  0  0  0
 16  1  2  0  0  0  0
 16 17  1  0  0  0  0
M  END
> <ChemID>
100631

> <source_casrn>
99-90-1

> <CAS>
99-90-1

> <SMILES>
CC(=O)c1ccc(Br)cc1

> <NAME>
P-BROMOACETOPHENONE

> <preferred_name>
Ethanone, 1-(4-bromophenyl)-

> <iupac>
1-(4-Bromophenyl)ethanone

> <MPID>
19706

> <dsstox_substance_id>
DTXSID4059203

> <Canonical_QSARr>
CC(=O)c1ccc(Br)cc1

> <InChI_Code_QSARr>
InChI=1S/C8H7BrO/c1-6(10)7-2-4-8(9)5-3-7/h2-5H,1H3

> <InChI Key_QSARr>
WYECURVXVYPVAT-UHFFFAOYSA-N

> <Salt_Solvent>
?

> <BP>
257.0

$$$$
100635
  -INDIGO-08031720192D

 22 22  0  0  0  0  0  0  0  0999 V2000
   -1.6000   -0.0000    0.0000 N   0  0  0  0  0  0  0  0  0  0  0  0
   -0.0000    0.0000    0.0000 C   0  0  0  0  0  0  0  0  0  0  0  0
    0.8001    1.3856    0.0000 C   0  0  0  0  0  0  0  0  0  0  0  0
   -0.0000    2.7713    0.0000 H   0  0  0  0  0  0  0  0  0  0  0  0
    2.4000    1.3856    0.0000 C   0  0  0  0  0  0  0  0  0  0  0  0
    3.2000    2.7713    0.0000 H   0  0  0  0  0  0  0  0  0  0  0  0
    3.2000    0.0000    0.0000 C   0  0  0  0  0  0  0  0  0  0  0  0
    4.8000   -0.0000    0.0000 N   0  0  0  0  0  0  0  0  0  0  0  0
    5.6000    1.3856    0.0000 H   0  0  0  0  0  0  0  0  0  0  0  0
    5.6000   -1.3856    0.0000 H   0  0  0  0  0  0  0  0  0  0  0  0
    2.4000   -1.3856    0.0000 C   0  0  0  0  0  0  0  0  0  0  0  0
    3.2000   -2.7713    0.0000 H   0  0  0  0  0  0  0  0  0  0  0  0
    0.8001   -1.3856    0.0000 C   0  0  0  0  0  0  0  0  0  0  0  0
   -0.0000   -2.7713    0.0000 H   0  0  0  0  0  0  0  0  0  0  0  0
   -2.3999   -1.3856    0.0000 C   0  0  0  0  0  0  0  0  0  0  0  0
   -3.2000   -2.7713    0.0000 H   0  0  0  0  0  0  0  0  0  0  0  0
   -4.0000   -1.3856    0.0000 H   0  0  0  0  0  0  0  0  0  0  0  0
   -1.6000   -2.7713    0.0000 H   0  0  0  0  0  0  0  0  0  0  0  0
   -2.3999    1.3856    0.0000 C   0  0  0  0  0  0  0  0  0  0  0  0
   -3.2000    2.7713    0.0000 H   0  0  0  0  0  0  0  0  0  0  0  0
   -4.0000    1.3856    0.0000 H   0  0  0  0  0  0  0  0  0  0  0  0
   -1.6000    2.7713    0.0000 H   0  0  0  0  0  0  0  0  0  0  0  0
  1  2  1  0  0  0  0
  2  3  1  0  0  0  0
  3  4  1  0  0  0  0
  3  5  2  0  0  0  0
  5  6  1  0  0  0  0
  5  7  1  0  0  0  0
  7  8  1  0  0  0  0
  8  9  1  0  0  0  0
  8 10  1  0  0  0  0
  7 11  2  0  0  0  0
 11 12  1  0  0  0  0
 11 13  1  0  0  0  0
 13  2  2  0  0  0  0
 13 14  1  0  0  0  0
  1 15  1  0  0  0  0
 15 16  1  0  0  0  0
 15 17  1  0  0  0  0
 15 18  1  0  0  0  0
  1 19  1  0  0  0  0
 19 20  1  0  0  0  0
 19 21  1  0  0  0  0
 19 22  1  0  0  0  0
M  END
> <ChemID>
100635

> <source_casrn>
99-98-9

> <CAS>
99-98-9

> <SMILES>
CN(C)c1ccc(N)cc1

> <NAME>
N,N-DIMETHYL-P-PHENYLENEDIAMINE

> <preferred_name>
N,N-Dimethyl-p-phenylenediamine

> <iupac>
N,N-dimethylbenzene-1,4-diamine

> <MPID>
19710

> <dsstox_substance_id>
DTXSID6025149

> <Canonical_QSARr>
CN(C)c1ccc(N)cc1

> <InChI_Code_QSARr>
InChI=1S/C8H12N2/c1-10(2)8-5-3-7(9)4-6-8/h3-6H,9H2,1-2H3

> <InChI Key_QSARr>
BZORFPDSXLZWJF-UHFFFAOYSA-N

> <Salt_Solvent>
?

> <BP>
263.0

$$$$
100639
  -INDIGO-08031720192D

 15 15  0  0  0  0  0  0  0  0999 V2000
    4.8001   -0.0000    0.0000 O   0  0  0  0  0  0  0  0  0  0  0  0
    5.6000    1.3856    0.0000 H   0  0  0  0  0  0  0  0  0  0  0  0
    3.2001   -0.0000    0.0000 C   0  0  0  0  0  0  0  0  0  0  0  0
    2.4000    1.3856    0.0000 C   0  0  0  0  0  0  0  0  0  0  0  0
    3.2001    2.7713    0.0000 H   0  0  0  0  0  0  0  0  0  0  0  0
    0.8000    1.3856    0.0000 C   0  0  0  0  0  0  0  0  0  0  0  0
    0.0001    2.7713    0.0000 H   0  0  0  0  0  0  0  0  0  0  0  0
    0.0001   -0.0000    0.0000 C   0  0  0  0  0  0  0  0  0  0  0  0
   -1.5999   -0.0000    0.0000 N   0  0  0  0  0  0  0  0  0  0  0  0
   -2.4000    1.3856    0.0000 O   0  0  0  0  0  0  0  0  0  0  0  0
   -2.4000   -1.3856    0.0000 O   0  0  0  0  0  0  0  0  0  0  0  0
    0.8000   -1.3856    0.0000 C   0  0  0  0  0  0  0  0  0  0  0  0
    0.0001   -2.7713    0.0000 H   0  0  0  0  0  0  0  0  0  0  0  0
    2.4000   -1.3856    0.0000 C   0  0  0  0  0  0  0  0  0  0  0  0
    3.2001   -2.7713    0.0000 H   0  0  0  0  0  0  0  0  0  0  0  0
  1  2  1  0  0  0  0
  1  3  1  0  0  0  0
  3  4  1  0  0  0  0
  4  5  1  0  0  0  0
  4  6  2  0  0  0  0
  6  7  1  0  0  0  0
  6  8  1  0  0  0  0
  8  9  1  0  0  0  0
  9 10  2  0  0  0  0
  9 11  1  0  0  0  0
  8 12  2  0  0  0  0
 12 13  1  0  0  0  0
 12 14  1  0  0  0  0
 14  3  2  0  0  0  0
 14 15  1  0  0  0  0
M  CHG  2   9   1  11  -1
M  END
> <ChemID>
100639

> <source_casrn>
100-02-7

> <CAS>
100-02-7

> <SMILES>
[O-][N+](=O)c1ccc(O)cc1

> <NAME>
4-NITROPHENOL

> <preferred_name>
4-Nitrophenol

> <iupac>
4-nitrophenol

> <MPID>
19714

> <dsstox_substance_id>
DTXSID0021834

> <Canonical_QSARr>
[O-][N+](=O)c1ccc(O)cc1

> <InChI_Code_QSARr>
InChI=1S/C6H5NO3/c8-6-3-1-5(2-4-6)7(9)10/h1-4,8H

> <InChI Key_QSARr>
BTJIUGUIPKRLHP-UHFFFAOYSA-N

> <Salt_Solvent>
?

> <BP>
279.0

$$$$
100643
  -INDIGO-08031720192D

 20 20  0  0  0  0  0  0  0  0999 V2000
    3.2000   -0.0000    0.0000 C   0  0  0  0  0  0  0  0  0  0  0  0
    2.4000    1.3856    0.0000 C   0  0  0  0  0  0  0  0  0  0  0  0
    3.2000    2.7713    0.0000 H   0  0  0  0  0  0  0  0  0  0  0  0
    0.8001    1.3856    0.0000 C   0  0  0  0  0  0  0  0  0  0  0  0
   -0.0000    2.7713    0.0000 H   0  0  0  0  0  0  0  0  0  0  0  0
   -0.0000   -0.0000    0.0000 C   0  0  0  0  0  0  0  0  0  0  0  0
   -1.6000   -0.0000    0.0000 C   0  0  0  0  0  0  0  0  0  0  0  0
   -1.8089   -1.5863    0.0000 H   0  0  0  0  0  0  0  0  0  0  0  0
   -2.8694   -0.9740    0.0000 H   0  0  0  0  0  0  0  0  0  0  0  0
   -2.4001    1.3856    0.0000 C   0  0  0  0  0  0  0  0  0  0  0  0
   -4.0000    1.3856    0.0000 H   0  0  0  0  0  0  0  0  0  0  0  0
   -3.2000    2.7713    0.0000 H   0  0  0  0  0  0  0  0  0  0  0  0
   -3.2000   -0.0000    0.0000 H   0  0  0  0  0  0  0  0  0  0  0  0
    0.8001   -1.3856    0.0000 C   0  0  0  0  0  0  0  0  0  0  0  0
   -0.0000   -2.7713    0.0000 H   0  0  0  0  0  0  0  0  0  0  0  0
    2.4000   -1.3856    0.0000 C   0  0  0  0  0  0  0  0  0  0  0  0
    3.2000   -2.7713    0.0000 H   0  0  0  0  0  0  0  0  0  0  0  0
    4.8000   -0.0000    0.0000 N   0  0  0  0  0  0  0  0  0  0  0  0
    5.6000   -1.3856    0.0000 O   0  0  0  0  0  0  0  0  0  0  0  0
    5.6000    1.3856    0.0000 O   0  0  0  0  0  0  0  0  0  0  0  0
  1  2  1  0  0  0  0
  2  3  1  0  0  0  0
  2  4  2  0  0  0  0
  4  5  1  0  0  0  0
  4  6  1  0  0  0  0
  6  7  1  0  0  0  0
  7  8  1  0  0  0  0
  7  9  1  0  0  0  0
  7 10  1  0  0  0  0
 10 11  1  0  0  0  0
 10 12  1  0  0  0  0
 10 13  1  0  0  0  0
  6 14  2  0  0  0  0
 14 15  1  0  0  0  0
 14 16  1  0  0  0  0
 16  1  2  0  0  0  0
 16 17  1  0  0  0  0
  1 18  1  0  0  0  0
 18 19  2  0  0  0  0
 18 20  1  0  0  0  0
M  CHG  2  18   1  20  -1
M  END
> <ChemID>
100643

> <source_casrn>
100-12-9

> <CAS>
100-12-9

> <SMILES>
CCc1ccc(cc1)[N+]([O-])=O

> <NAME>
4-ETHYLNITROBENZENE

> <preferred_name>
Benzene, 1-ethyl-4-nitro-

> <iupac>
1-Ethyl-4-nitrobenzene

> <MPID>
19718

> <dsstox_substance_id>
DTXSID9059206

> <Canonical_QSARr>
CCc1ccc(cc1)[N+]([O-])=O

> <InChI_Code_QSARr>
InChI=1S/C8H9NO2/c1-2-7-3-5-8(6-4-7)9(10)11/h3-6H,2H2,1H3

> <InChI Key_QSARr>
RESTWAHJFMZUIZ-UHFFFAOYSA-N

> <Salt_Solvent>
?

> <BP>
245.5

$$$$
100647
  -INDIGO-08031720192D

 28 28  0  0  0  0  0  0  0  0999 V2000
   -1.6000   -0.0000    0.0000 N   0  0  0  0  0  0  0  0  0  0  0  0
   -0.0001    0.0000    0.0000 C   0  0  0  0  0  0  0  0  0  0  0  0
    0.7999    1.3856    0.0000 C   0  0  0  0  0  0  0  0  0  0  0  0
   -0.0001    2.7713    0.0000 H   0  0  0  0  0  0  0  0  0  0  0  0
    2.4001    1.3856    0.0000 C   0  0  0  0  0  0  0  0  0  0  0  0
    3.2001    2.7713    0.0000 H   0  0  0  0  0  0  0  0  0  0  0  0
    3.2001    0.0000    0.0000 C   0  0  0  0  0  0  0  0  0  0  0  0
    4.8000   -0.0000    0.0000 N   0  0  0  0  0  0  0  0  0  0  0  0
    5.6000    1.3856    0.0000 C   0  0  0  0  0  0  0  0  0  0  0  0
    6.4000    2.7713    0.0000 H   0  0  0  0  0  0  0  0  0  0  0  0
    7.2000    1.3856    0.0000 H   0  0  0  0  0  0  0  0  0  0  0  0
    4.8000    2.7713    0.0000 H   0  0  0  0  0  0  0  0  0  0  0  0
    5.6000   -1.3856    0.0000 C   0  0  0  0  0  0  0  0  0  0  0  0
    6.4000   -2.7713    0.0000 H   0  0  0  0  0  0  0  0  0  0  0  0
    7.2000   -1.3856    0.0000 H   0  0  0  0  0  0  0  0  0  0  0  0
    4.8000   -2.7713    0.0000 H   0  0  0  0  0  0  0  0  0  0  0  0
    2.4001   -1.3856    0.0000 C   0  0  0  0  0  0  0  0  0  0  0  0
    3.2001   -2.7713    0.0000 H   0  0  0  0  0  0  0  0  0  0  0  0
    0.7999   -1.3856    0.0000 C   0  0  0  0  0  0  0  0  0  0  0  0
   -0.0001   -2.7713    0.0000 H   0  0  0  0  0  0  0  0  0  0  0  0
   -2.4000   -1.3856    0.0000 C   0  0  0  0  0  0  0  0  0  0  0  0
   -3.2000   -2.7713    0.0000 H   0  0  0  0  0  0  0  0  0  0  0  0
   -4.0000   -1.3856    0.0000 H   0  0  0  0  0  0  0  0  0  0  0  0
   -1.6000   -2.7713    0.0000 H   0  0  0  0  0  0  0  0  0  0  0  0
   -2.4000    1.3856    0.0000 C   0  0  0  0  0  0  0  0  0  0  0  0
   -3.2000    2.7713    0.0000 H   0  0  0  0  0  0  0  0  0  0  0  0
   -4.0000    1.3856    0.0000 H   0  0  0  0  0  0  0  0  0  0  0  0
   -1.6000    2.7713    0.0000 H   0  0  0  0  0  0  0  0  0  0  0  0
  1  2  1  0  0  0  0
  2  3  1  0  0  0  0
  3  4  1  0  0  0  0
  3  5  2  0  0  0  0
  5  6  1  0  0  0  0
  5  7  1  0  0  0  0
  7  8  1  0  0  0  0
  8  9  1  0  0  0  0
  9 10  1  0  0  0  0
  9 11  1  0  0  0  0
  9 12  1  0  0  0  0
  8 13  1  0  0  0  0
 13 14  1  0  0  0  0
 13 15  1  0  0  0  0
 13 16  1  0  0  0  0
  7 17  2  0  0  0  0
 17 18  1  0  0  0  0
 17 19  1  0  0  0  0
 19  2  2  0  0  0  0
 19 20  1  0  0  0  0
  1 21  1  0  0  0  0
 21 22  1  0  0  0  0
 21 23  1  0  0  0  0
 21 24  1  0  0  0  0
  1 25  1  0  0  0  0
 25 26  1  0  0  0  0
 25 27  1  0  0  0  0
 25 28  1  0  0  0  0
M  END
> <ChemID>
100647

> <source_casrn>
100-22-1

> <CAS>
100-22-1

> <SMILES>
CN(C)c1ccc(cc1)N(C)C

> <NAME>
N,N,N',N'-TETRAMETHYL-P-PHENYLENEDIAMINE

> <preferred_name>
N,N,N',N'-Tetramethyl-p-phenylenediamine

> <iupac>
N,N,N',N'-tetramethylbenzene-1,4-diamine

> <MPID>
19722

> <dsstox_substance_id>
DTXSID5026124

> <Canonical_QSARr>
CN(C)c1ccc(cc1)N(C)C

> <InChI_Code_QSARr>
InChI=1S/C10H16N2/c1-11(2)9-5-7-10(8-6-9)12(3)4/h5-8H,1-4H3

> <InChI Key_QSARr>
CJAOGUFAAWZWNI-UHFFFAOYSA-N

> <Salt_Solvent>
?

> <BP>
260.0

$$$$
100651
  -INDIGO-08031720192D

 24 23  0  0  0  0  0  0  0  0999 V2000
    0.0000   -2.7713    0.0000 C   0  0  0  0  0  0  0  0  0  0  0  0
    0.7999   -4.1569    0.0000 H   0  0  0  0  0  0  0  0  0  0  0  0
   -0.8000   -4.1569    0.0000 H   0  0  0  0  0  0  0  0  0  0  0  0
    1.6000   -2.7713    0.0000 H   0  0  0  0  0  0  0  0  0  0  0  0
   -0.8000   -1.3857    0.0000 C   0  0  0  0  0  0  0  0  0  0  0  0
   -2.2782   -1.9980    0.0000 H   0  0  0  0  0  0  0  0  0  0  0  0
   -2.2782   -0.7733    0.0000 H   0  0  0  0  0  0  0  0  0  0  0  0
    0.0000   -0.0000    0.0000 N   0  0  0  0  0  0  0  0  0  0  0  0
   -0.8000    1.3856    0.0000 C   0  0  0  0  0  0  0  0  0  0  0  0
   -0.5911    2.9720    0.0000 H   0  0  0  0  0  0  0  0  0  0  0  0
    0.4693    2.3596    0.0000 H   0  0  0  0  0  0  0  0  0  0  0  0
   -2.4000    1.3856    0.0000 C   0  0  0  0  0  0  0  0  0  0  0  0
   -4.0000    1.3856    0.0000 H   0  0  0  0  0  0  0  0  0  0  0  0
   -3.1999    2.7713    0.0000 H   0  0  0  0  0  0  0  0  0  0  0  0
   -3.1999   -0.0000    0.0000 H   0  0  0  0  0  0  0  0  0  0  0  0
    1.6000   -0.0000    0.0000 C   0  0  0  0  0  0  0  0  0  0  0  0
    2.8693   -0.9740    0.0000 H   0  0  0  0  0  0  0  0  0  0  0  0
    1.8088   -1.5864    0.0000 H   0  0  0  0  0  0  0  0  0  0  0  0
    2.6284    1.2257    0.0000 C   0  0  0  0  0  0  0  0  0  0  0  0
    1.5475    2.4053    0.0000 H   0  0  0  0  0  0  0  0  0  0  0  0
    2.6983    2.8241    0.0000 H   0  0  0  0  0  0  0  0  0  0  0  0
    4.2042    0.9478    0.0000 N   0  0  0  0  0  0  0  0  0  0  0  0
    5.2326    2.1735    0.0000 H   0  0  0  0  0  0  0  0  0  0  0  0
    4.7514   -0.5557    0.0000 H   0  0  0  0  0  0  0  0  0  0  0  0
  1  2  1  0  0  0  0
  1  3  1  0  0  0  0
  1  4  1  0  0  0  0
  1  5  1  0  0  0  0
  5  6  1  0  0  0  0
  5  7  1  0  0  0  0
  5  8  1  0  0  0  0
  8  9  1  0  0  0  0
  9 10  1  0  0  0  0
  9 11  1  0  0  0  0
  9 12  1  0  0  0  0
 12 13  1  0  0  0  0
 12 14  1  0  0  0  0
 12 15  1  0  0  0  0
  8 16  1  0  0  0  0
 16 17  1  0  0  0  0
 16 18  1  0  0  0  0
 16 19  1  0  0  0  0
 19 20  1  0  0  0  0
 19 21  1  0  0  0  0
 19 22  1  0  0  0  0
 22 23  1  0  0  0  0
 22 24  1  0  0  0  0
M  END
> <ChemID>
100651

> <source_casrn>
100-36-7

> <CAS>
100-36-7

> <SMILES>
CCN(CCN)CC

> <NAME>
1,2-ETHANEDIAMINE, N,N-DIETHYL-

> <preferred_name>
2-Aminoethyldiethylamine

> <iupac>
N,N-diethylethane-1,2-diamine

> <MPID>
19726

> <dsstox_substance_id>
DTXSID7057606

> <Canonical_QSARr>
CCN(CCN)CC

> <InChI_Code_QSARr>
InChI=1S/C6H16N2/c1-3-8(4-2)6-5-7/h3-7H2,1-2H3

> <InChI Key_QSARr>
UDGSVBYJWHOHNN-UHFFFAOYSA-N

> <Salt_Solvent>
?

> <BP>
144.0

$$$$
100655
  -INDIGO-08031720192D

 18 18  0  0  0  0  0  0  0  0999 V2000
    0.8001   -1.3856    0.0000 C   0  0  0  0  0  0  0  0  0  0  0  0
    2.4000   -1.3856    0.0000 H   0  0  0  0  0  0  0  0  0  0  0  0
    1.6000   -2.7713    0.0000 H   0  0  0  0  0  0  0  0  0  0  0  0
    1.6000   -0.0000    0.0000 H   0  0  0  0  0  0  0  0  0  0  0  0
    0.0000   -0.0000    0.0000 C   0  0  0  0  0  0  0  0  0  0  0  0
    0.2088    1.5863    0.0000 H   0  0  0  0  0  0  0  0  0  0  0  0
    1.2694    0.9740    0.0000 H   0  0  0  0  0  0  0  0  0  0  0  0
   -1.6000    0.0000    0.0000 C   0  0  0  0  0  0  0  0  0  0  0  0
   -2.4000    1.3856    0.0000 C   0  0  0  0  0  0  0  0  0  0  0  0
   -1.6000    2.7713    0.0000 H   0  0  0  0  0  0  0  0  0  0  0  0
   -4.0000    1.3856    0.0000 C   0  0  0  0  0  0  0  0  0  0  0  0
   -4.8001    2.7713    0.0000 H   0  0  0  0  0  0  0  0  0  0  0  0
   -4.8001    0.0000    0.0000 C   0  0  0  0  0  0  0  0  0  0  0  0
   -6.4000    0.0000    0.0000 H   0  0  0  0  0  0  0  0  0  0  0  0
   -4.0000   -1.3856    0.0000 C   0  0  0  0  0  0  0  0  0  0  0  0
   -4.8001   -2.7713    0.0000 H   0  0  0  0  0  0  0  0  0  0  0  0
   -2.4000   -1.3856    0.0000 C   0  0  0  0  0  0  0  0  0  0  0  0
   -1.6000   -2.7713    0.0000 H   0  0  0  0  0  0  0  0  0  0  0  0
  1  2  1  0  0  0  0
  1  3  1  0  0  0  0
  1  4  1  0  0  0  0
  1  5  1  0  0  0  0
  5  6  1  0  0  0  0
  5  7  1  0  0  0  0
  5  8  1  0  0  0  0
  8  9  1  0  0  0  0
  9 10  1  0  0  0  0
  9 11  2  0  0  0  0
 11 12  1  0  0  0  0
 11 13  1  0  0  0  0
 13 14  1  0  0  0  0
 13 15  2  0  0  0  0
 15 16  1  0  0  0  0
 15 17  1  0  0  0  0
 17  8  2  0  0  0  0
 17 18  1  0  0  0  0
M  END
> <ChemID>
100655

> <source_casrn>
100-41-4

> <CAS>
100-41-4

> <SMILES>
CCc1ccccc1

> <NAME>
ETHYLBENZENE

> <preferred_name>
Ethylbenzene

> <iupac>
C8H10

> <MPID>
19730

> <dsstox_substance_id>
DTXSID3020596

> <Canonical_QSARr>
CCc1ccccc1

> <InChI_Code_QSARr>
InChI=1S/C8H10/c1-2-8-6-4-3-5-7-8/h3-7H,2H2,1H3

> <InChI Key_QSARr>
YNQLUTRBYVCPMQ-UHFFFAOYSA-N

> <Salt_Solvent>
?

> <BP>
136.1

$$$$
100659
  -INDIGO-08031720192D

 13 13  0  0  0  0  0  0  0  0999 V2000
   -3.2000   -0.0000    0.0000 N   0  0  0  0  0  0  0  0  0  0  0  0
   -1.6000   -0.0000    0.0000 C   0  0  0  0  0  0  0  0  0  0  0  0
    0.0000   -0.0000    0.0000 C   0  0  0  0  0  0  0  0  0  0  0  0
    0.8001    1.3856    0.0000 C   0  0  0  0  0  0  0  0  0  0  0  0
    0.0000    2.7713    0.0000 H   0  0  0  0  0  0  0  0  0  0  0  0
    2.4001    1.3856    0.0000 C   0  0  0  0  0  0  0  0  0  0  0  0
    3.2000    2.7713    0.0000 H   0  0  0  0  0  0  0  0  0  0  0  0
    3.2000   -0.0000    0.0000 C   0  0  0  0  0  0  0  0  0  0  0  0
    4.8000   -0.0000    0.0000 H   0  0  0  0  0  0  0  0  0  0  0  0
    2.4001   -1.3856    0.0000 C   0  0  0  0  0  0  0  0  0  0  0  0
    3.2000   -2.7713    0.0000 H   0  0  0  0  0  0  0  0  0  0  0  0
    0.8001   -1.3856    0.0000 C   0  0  0  0  0  0  0  0  0  0  0  0
    0.0000   -2.7713    0.0000 H   0  0  0  0  0  0  0  0  0  0  0  0
  1  2  3  0  0  0  0
  2  3  1  0  0  0  0
  3  4  1  0  0  0  0
  4  5  1  0  0  0  0
  4  6  2  0  0  0  0
  6  7  1  0  0  0  0
  6  8  1  0  0  0  0
  8  9  1  0  0  0  0
  8 10  2  0  0  0  0
 10 11  1  0  0  0  0
 10 12  1  0  0  0  0
 12  3  2  0  0  0  0
 12 13  1  0  0  0  0
M  END
> <ChemID>
100659

> <source_casrn>
100-47-0

> <CAS>
100-47-0

> <SMILES>
N#Cc1ccccc1

> <NAME>
BENZONITRILE

> <preferred_name>
Benzonitrile

> <iupac>
benzonitrile

> <MPID>
19734

> <dsstox_substance_id>
DTXSID7021491

> <Canonical_QSARr>
N#Cc1ccccc1

> <InChI_Code_QSARr>
InChI=1S/C7H5N/c8-6-7-4-2-1-3-5-7/h1-5H

> <InChI Key_QSARr>
JFDZBHWFFUWGJE-UHFFFAOYSA-N

> <Salt_Solvent>
?

> <BP>
191.1

$$$$
100663
  -INDIGO-08031720192D

 16 16  0  0  0  0  0  0  0  0999 V2000
    2.4001   -1.3856    0.0000 O   0  0  0  0  0  0  0  0  0  0  0  0
    4.0000   -1.3856    0.0000 H   0  0  0  0  0  0  0  0  0  0  0  0
    1.6000   -0.0000    0.0000 C   0  0  0  0  0  0  0  0  0  0  0  0
    1.8088    1.5863    0.0000 H   0  0  0  0  0  0  0  0  0  0  0  0
    2.8694    0.9740    0.0000 H   0  0  0  0  0  0  0  0  0  0  0  0
   -0.0000   -0.0000    0.0000 C   0  0  0  0  0  0  0  0  0  0  0  0
   -0.8000    1.3856    0.0000 C   0  0  0  0  0  0  0  0  0  0  0  0
   -0.0000    2.7713    0.0000 H   0  0  0  0  0  0  0  0  0  0  0  0
   -2.4000    1.3856    0.0000 C   0  0  0  0  0  0  0  0  0  0  0  0
   -3.2001    2.7713    0.0000 H   0  0  0  0  0  0  0  0  0  0  0  0
   -3.2001   -0.0000    0.0000 C   0  0  0  0  0  0  0  0  0  0  0  0
   -4.8000   -0.0000    0.0000 H   0  0  0  0  0  0  0  0  0  0  0  0
   -2.4000   -1.3856    0.0000 C   0  0  0  0  0  0  0  0  0  0  0  0
   -3.2001   -2.7713    0.0000 H   0  0  0  0  0  0  0  0  0  0  0  0
   -0.8000   -1.3856    0.0000 C   0  0  0  0  0  0  0  0  0  0  0  0
   -0.0000   -2.7713    0.0000 H   0  0  0  0  0  0  0  0  0  0  0  0
  1  2  1  0  0  0  0
  1  3  1  0  0  0  0
  3  4  1  0  0  0  0
  3  5  1  0  0  0  0
  3  6  1  0  0  0  0
  6  7  1  0  0  0  0
  7  8  1  0  0  0  0
  7  9  2  0  0  0  0
  9 10  1  0  0  0  0
  9 11  1  0  0  0  0
 11 12  1  0  0  0  0
 11 13  2  0  0  0  0
 13 14  1  0  0  0  0
 13 15  1  0  0  0  0
 15  6  2  0  0  0  0
 15 16  1  0  0  0  0
M  END
> <ChemID>
100663

> <source_casrn>
100-51-6

> <CAS>
100-51-6

> <SMILES>
OCc1ccccc1

> <NAME>
BENZYL ALCOHOL

> <preferred_name>
Benzyl alcohol

> <iupac>
phenylmethanol

> <MPID>
19738

> <dsstox_substance_id>
DTXSID5020152

> <Canonical_QSARr>
OCc1ccccc1

> <InChI_Code_QSARr>
InChI=1S/C7H8O/c8-6-7-4-2-1-3-5-7/h1-5,8H,6H2

> <InChI Key_QSARr>
WVDDGKGOMKODPV-UHFFFAOYSA-N

> <Salt_Solvent>
?

> <BP>
205.3

$$$$
100667
  -INDIGO-08031720192D

 15 15  0  0  0  0  0  0  0  0999 V2000
    2.7713    1.6000    0.0000 C   0  0  0  0  0  0  0  0  0  0  0  0
    4.1569    2.4000    0.0000 H   0  0  0  0  0  0  0  0  0  0  0  0
    2.7713   -0.0000    0.0000 C   0  0  0  0  0  0  0  0  0  0  0  0
    4.1569   -0.8000    0.0000 H   0  0  0  0  0  0  0  0  0  0  0  0
    1.3856   -0.8000    0.0000 C   0  0  0  0  0  0  0  0  0  0  0  0
    1.3856   -2.4000    0.0000 H   0  0  0  0  0  0  0  0  0  0  0  0
    0.0001    0.0000    0.0000 C   0  0  0  0  0  0  0  0  0  0  0  0
   -1.3856   -0.8000    0.0000 C   0  0  0  0  0  0  0  0  0  0  0  0
   -1.9979   -2.2782    0.0000 H   0  0  0  0  0  0  0  0  0  0  0  0
   -0.7734   -2.2782    0.0000 H   0  0  0  0  0  0  0  0  0  0  0  0
   -2.7712    0.0000    0.0000 O   0  0  0  0  0  0  0  0  0  0  0  0
   -4.1569   -0.8000    0.0000 H   0  0  0  0  0  0  0  0  0  0  0  0
    0.0001    1.6000    0.0000 C   0  0  0  0  0  0  0  0  0  0  0  0
   -1.3856    2.4000    0.0000 H   0  0  0  0  0  0  0  0  0  0  0  0
    1.3856    2.4000    0.0000 N   0  0  0  0  0  0  0  0  0  0  0  0
  1  2  1  0  0  0  0
  1  3  1  0  0  0  0
  3  4  1  0  0  0  0
  3  5  2  0  0  0  0
  5  6  1  0  0  0  0
  5  7  1  0  0  0  0
  7  8  1  0  0  0  0
  8  9  1  0  0  0  0
  8 10  1  0  0  0  0
  8 11  1  0  0  0  0
 11 12  1  0  0  0  0
  7 13  2  0  0  0  0
 13 14  1  0  0  0  0
 13 15  1  0  0  0  0
 15  1  2  0  0  0  0
M  END
> <ChemID>
100667

> <source_casrn>
100-55-0

> <CAS>
100-55-0

> <SMILES>
OCc1c[n]ccc1

> <NAME>
3-PYRIDINEMETHANOL

> <preferred_name>
Nicotinyl alcohol

> <iupac>
pyridin-3-ylmethanol

> <MPID>
19742

> <dsstox_substance_id>
DTXSID6023367

> <Canonical_QSARr>
OCc1c[n]ccc1

> <InChI_Code_QSARr>
InChI=1S/C6H7NO/c8-5-6-2-1-3-7-4-6/h1-4,8H,5H2

> <InChI Key_QSARr>
MVQVNTPHUGQQHK-UHFFFAOYSA-N

> <Salt_Solvent>
?

> <BP>
266.0

$$$$
100671
  -INDIGO-08031720192D

 19 19  0  0  0  0  0  0  0  0999 V2000
    0.5472    1.5035    0.0000 N   0  0  0  0  0  0  0  0  0  0  0  0
    2.1229    1.7814    0.0000 O   0  0  0  0  0  0  0  0  0  0  0  0
   -0.0000    0.0000    0.0000 C   0  0  0  0  0  0  0  0  0  0  0  0
    1.5757   -0.2778    0.0000 H   0  0  0  0  0  0  0  0  0  0  0  0
   -1.3856    0.8000    0.0000 C   0  0  0  0  0  0  0  0  0  0  0  0
   -0.3572    2.0257    0.0000 H   0  0  0  0  0  0  0  0  0  0  0  0
   -2.4141    2.0257    0.0000 H   0  0  0  0  0  0  0  0  0  0  0  0
   -2.7712    0.0000    0.0000 C   0  0  0  0  0  0  0  0  0  0  0  0
   -3.3186    1.5035    0.0000 H   0  0  0  0  0  0  0  0  0  0  0  0
   -4.3470   -0.2778    0.0000 H   0  0  0  0  0  0  0  0  0  0  0  0
   -2.7712   -1.6000    0.0000 C   0  0  0  0  0  0  0  0  0  0  0  0
   -4.3470   -1.3222    0.0000 H   0  0  0  0  0  0  0  0  0  0  0  0
   -3.3185   -3.1035    0.0000 H   0  0  0  0  0  0  0  0  0  0  0  0
   -1.3856   -2.4000    0.0000 C   0  0  0  0  0  0  0  0  0  0  0  0
   -2.4141   -3.6257    0.0000 H   0  0  0  0  0  0  0  0  0  0  0  0
   -0.3572   -3.6257    0.0000 H   0  0  0  0  0  0  0  0  0  0  0  0
   -0.0000   -1.6000    0.0000 C   0  0  0  0  0  0  0  0  0  0  0  0
    0.5472   -3.1035    0.0000 H   0  0  0  0  0  0  0  0  0  0  0  0
    1.5757   -1.3222    0.0000 H   0  0  0  0  0  0  0  0  0  0  0  0
  1  2  2  0  0  0  0
  1  3  1  0  0  0  0
  3  4  1  0  0  0  0
  3  5  1  0  0  0  0
  5  6  1  0  0  0  0
  5  7  1  0  0  0  0
  5  8  1  0  0  0  0
  8  9  1  0  0  0  0
  8 10  1  0  0  0  0
  8 11  1  0  0  0  0
 11 12  1  0  0  0  0
 11 13  1  0  0  0  0
 11 14  1  0  0  0  0
 14 15  1  0  0  0  0
 14 16  1  0  0  0  0
 14 17  1  0  0  0  0
 17  3  1  0  0  0  0
 17 18  1  0  0  0  0
 17 19  1  0  0  0  0
M  END
> <ChemID>
100671

> <source_casrn>
100-64-1

> <CAS>
100-64-1

> <SMILES>
ON=C1CCCCC1

> <NAME>
CYCLOHEXANONE OXIME

> <preferred_name>
Cyclohexanone oxime

> <iupac>
N-hydroxycyclohexanimine

> <MPID>
19746

> <dsstox_substance_id>
DTXSID4021842

> <Canonical_QSARr>
O=NC1CCCCC1

> <InChI_Code_QSARr>
InChI=1S/C6H11NO/c8-7-6-4-2-1-3-5-6/h6H,1-5H2

> <InChI Key_QSARr>
AFLQDEOAJRGCOW-UHFFFAOYSA-N

> <Salt_Solvent>
?

> <BP>
206.0

$$$$
100675
  -INDIGO-08031720192D

 12 12  0  0  0  0  0  0  0  0999 V2000
   -0.0001    2.7713    0.0000 N   0  0  0  0  0  0  0  0  0  0  0  0
    0.8000    1.3856    0.0000 C   0  0  0  0  0  0  0  0  0  0  0  0
    2.4000    1.3856    0.0000 C   0  0  0  0  0  0  0  0  0  0  0  0
    4.0000    1.3856    0.0000 N   0  0  0  0  0  0  0  0  0  0  0  0
   -0.0001    0.0000    0.0000 C   0  0  0  0  0  0  0  0  0  0  0  0
    0.8000   -1.3856    0.0000 H   0  0  0  0  0  0  0  0  0  0  0  0
   -1.6001    0.0000    0.0000 C   0  0  0  0  0  0  0  0  0  0  0  0
   -2.4000   -1.3856    0.0000 H   0  0  0  0  0  0  0  0  0  0  0  0
   -2.4000    1.3856    0.0000 C   0  0  0  0  0  0  0  0  0  0  0  0
   -4.0000    1.3856    0.0000 H   0  0  0  0  0  0  0  0  0  0  0  0
   -1.6001    2.7713    0.0000 C   0  0  0  0  0  0  0  0  0  0  0  0
   -2.4000    4.1569    0.0000 H   0  0  0  0  0  0  0  0  0  0  0  0
  1  2  1  0  0  0  0
  2  3  1  0  0  0  0
  3  4  3  0  0  0  0
  2  5  2  0  0  0  0
  5  6  1  0  0  0  0
  5  7  1  0  0  0  0
  7  8  1  0  0  0  0
  7  9  2  0  0  0  0
  9 10  1  0  0  0  0
  9 11  1  0  0  0  0
 11  1  2  0  0  0  0
 11 12  1  0  0  0  0
M  END
> <ChemID>
100675

> <source_casrn>
100-70-9

> <CAS>
100-70-9

> <SMILES>
N#Cc1cccc[n]1

> <NAME>
2-CYANOPYRIDINE

> <preferred_name>
2-Pyridinecarbonitrile

> <iupac>
pyridine-2-carbonitrile

> <MPID>
19750

> <dsstox_substance_id>
DTXSID9021843

> <Canonical_QSARr>
N#Cc1cccc[n]1

> <InChI_Code_QSARr>
InChI=1S/C6H4N2/c7-5-6-3-1-2-4-8-6/h1-4H

> <InChI Key_QSARr>
FFNVQNRYTPFDDP-UHFFFAOYSA-N

> <Salt_Solvent>
?

> <BP>
224.5

$$$$
100680
  -INDIGO-08031720192D

 18 18  0  0  0  0  0  0  0  0999 V2000
   -5.5426    1.6000    0.0000 O   0  0  0  0  0  0  0  0  0  0  0  0
   -4.1569    2.4000    0.0000 N   0  0  0  0  0  0  0  0  0  0  0  0
   -2.7713    1.6000    0.0000 N   0  0  0  0  0  0  0  0  0  0  0  0
   -2.7713   -0.0000    0.0000 C   0  0  0  0  0  0  0  0  0  0  0  0
   -4.3470    0.2778    0.0000 H   0  0  0  0  0  0  0  0  0  0  0  0
   -3.3185   -1.5035    0.0000 H   0  0  0  0  0  0  0  0  0  0  0  0
   -1.3857   -0.8000    0.0000 C   0  0  0  0  0  0  0  0  0  0  0  0
   -2.4140   -2.0257    0.0000 H   0  0  0  0  0  0  0  0  0  0  0  0
   -0.3572   -2.0257    0.0000 H   0  0  0  0  0  0  0  0  0  0  0  0
   -0.0000   -0.0000    0.0000 C   0  0  0  0  0  0  0  0  0  0  0  0
    0.5472   -1.5035    0.0000 H   0  0  0  0  0  0  0  0  0  0  0  0
    1.5757    0.2778    0.0000 H   0  0  0  0  0  0  0  0  0  0  0  0
   -0.0000    1.6000    0.0000 C   0  0  0  0  0  0  0  0  0  0  0  0
    1.5757    1.3222    0.0000 H   0  0  0  0  0  0  0  0  0  0  0  0
    0.5472    3.1035    0.0000 H   0  0  0  0  0  0  0  0  0  0  0  0
   -1.3857    2.4000    0.0000 C   0  0  0  0  0  0  0  0  0  0  0  0
   -0.3572    3.6257    0.0000 H   0  0  0  0  0  0  0  0  0  0  0  0
   -2.4140    3.6257    0.0000 H   0  0  0  0  0  0  0  0  0  0  0  0
  1  2  2  0  0  0  0
  2  3  1  0  0  0  0
  3  4  1  0  0  0  0
  4  5  1  0  0  0  0
  4  6  1  0  0  0  0
  4  7  1  0  0  0  0
  7  8  1  0  0  0  0
  7  9  1  0  0  0  0
  7 10  1  0  0  0  0
 10 11  1  0  0  0  0
 10 12  1  0  0  0  0
 10 13  1  0  0  0  0
 13 14  1  0  0  0  0
 13 15  1  0  0  0  0
 13 16  1  0  0  0  0
 16  3  1  0  0  0  0
 16 17  1  0  0  0  0
 16 18  1  0  0  0  0
M  END
> <ChemID>
100680

> <source_casrn>
100-75-4

> <CAS>
100-75-4

> <SMILES>
O=NN1CCCCC1

> <NAME>
N-NITROSOPIPERIDINE

> <preferred_name>
N-Nitrosopiperidine

> <iupac>
1-nitrosopiperidine

> <MPID>
19754

> <dsstox_substance_id>
DTXSID8021060

> <Canonical_QSARr>
O=NN1CCCCC1

> <InChI_Code_QSARr>
InChI=1S/C5H10N2O/c8-6-7-4-2-1-3-5-7/h1-5H2

> <InChI Key_QSARr>
UWSDONTXWQOZFN-UHFFFAOYSA-N

> <Salt_Solvent>
?

> <BP>
219.0

$$$$
100684
  -INDIGO-08031720192D

 19 19  0  0  0  0  0  0  0  0999 V2000
    2.7713   -0.0000    0.0000 C   0  0  0  0  0  0  0  0  0  0  0  0
    2.7713   -1.6000    0.0000 C   0  0  0  0  0  0  0  0  0  0  0  0
    4.1570   -2.4000    0.0000 H   0  0  0  0  0  0  0  0  0  0  0  0
    1.3856   -2.4000    0.0000 C   0  0  0  0  0  0  0  0  0  0  0  0
    1.3856   -4.0000    0.0000 H   0  0  0  0  0  0  0  0  0  0  0  0
   -0.0000   -1.6000    0.0000 C   0  0  0  0  0  0  0  0  0  0  0  0
   -1.3857   -2.4000    0.0000 H   0  0  0  0  0  0  0  0  0  0  0  0
   -0.0000   -0.0000    0.0000 C   0  0  0  0  0  0  0  0  0  0  0  0
   -1.3857    0.8000    0.0000 C   0  0  0  0  0  0  0  0  0  0  0  0
   -2.7713    1.6000    0.0000 H   0  0  0  0  0  0  0  0  0  0  0  0
   -2.7713   -0.0000    0.0000 H   0  0  0  0  0  0  0  0  0  0  0  0
   -1.3857    2.4000    0.0000 H   0  0  0  0  0  0  0  0  0  0  0  0
    1.3856    0.8000    0.0000 C   0  0  0  0  0  0  0  0  0  0  0  0
    1.3856    2.4000    0.0000 H   0  0  0  0  0  0  0  0  0  0  0  0
    4.1570    0.8000    0.0000 O   0  0  0  0  0  0  0  0  0  0  0  0
    5.5426   -0.0000    0.0000 C   0  0  0  0  0  0  0  0  0  0  0  0
    6.9282    0.8000    0.0000 H   0  0  0  0  0  0  0  0  0  0  0  0
    6.9282   -0.8000    0.0000 H   0  0  0  0  0  0  0  0  0  0  0  0
    5.5426    1.6000    0.0000 H   0  0  0  0  0  0  0  0  0  0  0  0
  1  2  1  0  0  0  0
  2  3  1  0  0  0  0
  2  4  2  0  0  0  0
  4  5  1  0  0  0  0
  4  6  1  0  0  0  0
  6  7  1  0  0  0  0
  6  8  2  0  0  0  0
  8  9  1  0  0  0  0
  9 10  1  0  0  0  0
  9 11  1  0  0  0  0
  9 12  1  0  0  0  0
  8 13  1  0  0  0  0
 13  1  2  0  0  0  0
 13 14  1  0  0  0  0
  1 15  1  0  0  0  0
 15 16  1  0  0  0  0
 16 17  1  0  0  0  0
 16 18  1  0  0  0  0
 16 19  1  0  0  0  0
M  END
> <ChemID>
100684

> <source_casrn>
100-84-5

> <CAS>
100-84-5

> <SMILES>
Cc1cccc(c1)OC

> <NAME>
M-METHYLANISOLE

> <preferred_name>
3-Methoxytoluene

> <iupac>
1-methoxy-3-methylbenzene

> <MPID>
19758

> <dsstox_substance_id>
DTXSID2051500

> <Canonical_QSARr>
Cc1cccc(c1)OC

> <InChI_Code_QSARr>
InChI=1S/C8H10O/c1-7-4-3-5-8(6-7)9-2/h3-6H,1-2H3

> <InChI Key_QSARr>
OSIGJGFTADMDOB-UHFFFAOYSA-N

> <Salt_Solvent>
?

> <BP>
175.5

$$$$
100688
  -INDIGO-08031720192D

 24 25  0  0  0  0  0  0  0  0999 V2000
   -3.6326    2.1735    0.0000 Cl  0  0  0  0  0  0  0  0  0  0  0  0
   -2.6042    0.9479    0.0000 C   0  0  0  0  0  0  0  0  0  0  0  0
   -1.0284    1.2257    0.0000 C   0  0  0  0  0  0  0  0  0  0  0  0
   -0.4813    2.7292    0.0000 H   0  0  0  0  0  0  0  0  0  0  0  0
    0.0000    0.0000    0.0000 C   0  0  0  0  0  0  0  0  0  0  0  0
    1.5756    0.2779    0.0000 N   0  0  0  0  0  0  0  0  0  0  0  0
    1.8536    1.8535    0.0000 H   0  0  0  0  0  0  0  0  0  0  0  0
    2.9614   -0.5221    0.0000 C   0  0  0  0  0  0  0  0  0  0  0  0
    2.9614   -2.1222    0.0000 C   0  0  0  0  0  0  0  0  0  0  0  0
    1.5756   -2.9222    0.0000 H   0  0  0  0  0  0  0  0  0  0  0  0
    4.3470   -2.9222    0.0000 C   0  0  0  0  0  0  0  0  0  0  0  0
    4.3470   -4.5222    0.0000 H   0  0  0  0  0  0  0  0  0  0  0  0
    5.7326   -2.1222    0.0000 C   0  0  0  0  0  0  0  0  0  0  0  0
    7.1183   -2.9222    0.0000 H   0  0  0  0  0  0  0  0  0  0  0  0
    5.7326   -0.5221    0.0000 C   0  0  0  0  0  0  0  0  0  0  0  0
    7.1183    0.2779    0.0000 H   0  0  0  0  0  0  0  0  0  0  0  0
    4.3470    0.2779    0.0000 C   0  0  0  0  0  0  0  0  0  0  0  0
    4.3470    1.8779    0.0000 H   0  0  0  0  0  0  0  0  0  0  0  0
   -0.5473   -1.5035    0.0000 C   0  0  0  0  0  0  0  0  0  0  0  0
    0.4812   -2.7292    0.0000 H   0  0  0  0  0  0  0  0  0  0  0  0
   -2.1229   -1.7813    0.0000 C   0  0  0  0  0  0  0  0  0  0  0  0
   -2.6702   -3.2849    0.0000 H   0  0  0  0  0  0  0  0  0  0  0  0
   -3.1513   -0.5556    0.0000 C   0  0  0  0  0  0  0  0  0  0  0  0
   -4.7271   -0.8335    0.0000 H   0  0  0  0  0  0  0  0  0  0  0  0
  1  2  1  0  0  0  0
  2  3  1  0  0  0  0
  3  4  1  0  0  0  0
  3  5  2  0  0  0  0
  5  6  1  0  0  0  0
  6  7  1  0  0  0  0
  6  8  1  0  0  0  0
  8  9  1  0  0  0  0
  9 10  1  0  0  0  0
  9 11  2  0  0  0  0
 11 12  1  0  0  0  0
 11 13  1  0  0  0  0
 13 14  1  0  0  0  0
 13 15  2  0  0  0  0
 15 16  1  0  0  0  0
 15 17  1  0  0  0  0
 17  8  2  0  0  0  0
 17 18  1  0  0  0  0
  5 19  1  0  0  0  0
 19 20  1  0  0  0  0
 19 21  2  0  0  0  0
 21 22  1  0  0  0  0
 21 23  1  0  0  0  0
 23  2  2  0  0  0  0
 23 24  1  0  0  0  0
M  END
> <ChemID>
100688

> <source_casrn>
101-17-7

> <CAS>
101-17-7

> <SMILES>
Clc1cc(ccc1)Nc1ccccc1

> <NAME>
3-CHLORODIPHENYL ETHER

> <preferred_name>
3-Chlorodiphenylamine

> <iupac>
3-chloro-N-phenylaniline

> <MPID>
19762

> <dsstox_substance_id>
DTXSID70143615

> <Canonical_QSARr>
Clc1cc(ccc1)Nc1ccccc1

> <InChI_Code_QSARr>
InChI=1S/C12H10ClN/c13-10-5-4-8-12(9-10)14-11-6-2-1-3-7-11/h1-9,14H

> <InChI Key_QSARr>
OHHIBZKYXJDQEU-UHFFFAOYSA-N

> <Salt_Solvent>
?

> <BP>
338.0

$$$$
100692
  -INDIGO-08031720192D

 21 21  0  0  0  0  0  0  0  0999 V2000
    0.0001   -0.0000    0.0000 C   0  0  0  0  0  0  0  0  0  0  0  0
    0.0001   -1.6000    0.0000 C   0  0  0  0  0  0  0  0  0  0  0  0
    1.3857   -2.4000    0.0000 H   0  0  0  0  0  0  0  0  0  0  0  0
   -1.3856   -2.4000    0.0000 C   0  0  0  0  0  0  0  0  0  0  0  0
   -1.3856   -4.0000    0.0000 H   0  0  0  0  0  0  0  0  0  0  0  0
   -2.7713   -1.6000    0.0000 C   0  0  0  0  0  0  0  0  0  0  0  0
   -4.1569   -2.4000    0.0000 H   0  0  0  0  0  0  0  0  0  0  0  0
   -2.7713   -0.0000    0.0000 C   0  0  0  0  0  0  0  0  0  0  0  0
   -4.1569    0.8000    0.0000 H   0  0  0  0  0  0  0  0  0  0  0  0
   -1.3856    0.8000    0.0000 C   0  0  0  0  0  0  0  0  0  0  0  0
   -1.3856    2.4000    0.0000 H   0  0  0  0  0  0  0  0  0  0  0  0
    1.3857    0.8000    0.0000 C   0  0  0  0  0  0  0  0  0  0  0  0
    1.9979    2.2782    0.0000 H   0  0  0  0  0  0  0  0  0  0  0  0
    0.7734    2.2782    0.0000 H   0  0  0  0  0  0  0  0  0  0  0  0
    2.7712   -0.0000    0.0000 C   0  0  0  0  0  0  0  0  0  0  0  0
    2.7712   -1.6000    0.0000 O   0  0  0  0  0  0  0  0  0  0  0  0
    4.1569    0.8000    0.0000 O   0  0  0  0  0  0  0  0  0  0  0  0
    5.5425   -0.0000    0.0000 C   0  0  0  0  0  0  0  0  0  0  0  0
    6.9282   -0.8000    0.0000 H   0  0  0  0  0  0  0  0  0  0  0  0
    6.9282    0.8000    0.0000 H   0  0  0  0  0  0  0  0  0  0  0  0
    5.5425   -1.6000    0.0000 H   0  0  0  0  0  0  0  0  0  0  0  0
  1  2  1  0  0  0  0
  2  3  1  0  0  0  0
  2  4  2  0  0  0  0
  4  5  1  0  0  0  0
  4  6  1  0  0  0  0
  6  7  1  0  0  0  0
  6  8  2  0  0  0  0
  8  9  1  0  0  0  0
  8 10  1  0  0  0  0
 10  1  2  0  0  0  0
 10 11  1  0  0  0  0
  1 12  1  0  0  0  0
 12 13  1  0  0  0  0
 12 14  1  0  0  0  0
 12 15  1  0  0  0  0
 15 16  2  0  0  0  0
 15 17  1  0  0  0  0
 17 18  1  0  0  0  0
 18 19  1  0  0  0  0
 18 20  1  0  0  0  0
 18 21  1  0  0  0  0
M  END
> <ChemID>
100692

> <source_casrn>
101-41-7

> <CAS>
101-41-7

> <SMILES>
COC(=O)Cc1ccccc1

> <NAME>
PHENYLACETIC ACID, METHYL ESTER

> <preferred_name>
Methyl phenylacetate

> <iupac>
methyl phenylacetate

> <MPID>
19766

> <dsstox_substance_id>
DTXSID1044352

> <Canonical_QSARr>
COC(=O)Cc1ccccc1

> <InChI_Code_QSARr>
InChI=1S/C9H10O2/c1-11-9(10)7-8-5-3-2-4-6-8/h2-6H,7H2,1H3

> <InChI Key_QSARr>
CRZQGDNQQAALAY-UHFFFAOYSA-N

> <Salt_Solvent>
?

> <BP>
216.5

$$$$
100696
  -INDIGO-08031720192D

 26 27  0  0  0  0  0  0  0  0999 V2000
   -1.3856   -0.8000    0.0000 N   0  0  0  0  0  0  0  0  0  0  0  0
   -1.1077   -2.3757    0.0000 H   0  0  0  0  0  0  0  0  0  0  0  0
   -2.9613   -0.5222    0.0000 C   0  0  0  0  0  0  0  0  0  0  0  0
   -3.5086    0.9813    0.0000 C   0  0  0  0  0  0  0  0  0  0  0  0
   -2.4800    2.2071    0.0000 H   0  0  0  0  0  0  0  0  0  0  0  0
   -5.0842    1.2591    0.0000 C   0  0  0  0  0  0  0  0  0  0  0  0
   -5.6315    2.7627    0.0000 H   0  0  0  0  0  0  0  0  0  0  0  0
   -6.1126    0.0335    0.0000 C   0  0  0  0  0  0  0  0  0  0  0  0
   -7.6884    0.3113    0.0000 H   0  0  0  0  0  0  0  0  0  0  0  0
   -5.5655   -1.4700    0.0000 C   0  0  0  0  0  0  0  0  0  0  0  0
   -6.5940   -2.6957    0.0000 H   0  0  0  0  0  0  0  0  0  0  0  0
   -3.9898   -1.7479    0.0000 C   0  0  0  0  0  0  0  0  0  0  0  0
   -3.4426   -3.2513    0.0000 H   0  0  0  0  0  0  0  0  0  0  0  0
    0.0000   -0.0001    0.0000 C   0  0  0  0  0  0  0  0  0  0  0  0
    0.0000    1.6000    0.0000 C   0  0  0  0  0  0  0  0  0  0  0  0
   -1.3856    2.4000    0.0000 H   0  0  0  0  0  0  0  0  0  0  0  0
    1.3856    2.4000    0.0000 C   0  0  0  0  0  0  0  0  0  0  0  0
    1.3856    4.0000    0.0000 H   0  0  0  0  0  0  0  0  0  0  0  0
    2.7712    1.6000    0.0000 C   0  0  0  0  0  0  0  0  0  0  0  0
    4.1570    2.4000    0.0000 N   0  0  0  0  0  0  0  0  0  0  0  0
    4.1570    4.0000    0.0000 H   0  0  0  0  0  0  0  0  0  0  0  0
    5.5426    1.6000    0.0000 H   0  0  0  0  0  0  0  0  0  0  0  0
    2.7712   -0.0001    0.0000 C   0  0  0  0  0  0  0  0  0  0  0  0
    4.1570   -0.8000    0.0000 H   0  0  0  0  0  0  0  0  0  0  0  0
    1.3856   -0.8000    0.0000 C   0  0  0  0  0  0  0  0  0  0  0  0
    1.3856   -2.4000    0.0000 H   0  0  0  0  0  0  0  0  0  0  0  0
  1  2  1  0  0  0  0
  1  3  1  0  0  0  0
  3  4  1  0  0  0  0
  4  5  1  0  0  0  0
  4  6  2  0  0  0  0
  6  7  1  0  0  0  0
  6  8  1  0  0  0  0
  8  9  1  0  0  0  0
  8 10  2  0  0  0  0
 10 11  1  0  0  0  0
 10 12  1  0  0  0  0
 12  3  2  0  0  0  0
 12 13  1  0  0  0  0
  1 14  1  0  0  0  0
 14 15  1  0  0  0  0
 15 16  1  0  0  0  0
 15 17  2  0  0  0  0
 17 18  1  0  0  0  0
 17 19  1  0  0  0  0
 19 20  1  0  0  0  0
 20 21  1  0  0  0  0
 20 22  1  0  0  0  0
 19 23  2  0  0  0  0
 23 24  1  0  0  0  0
 23 25  1  0  0  0  0
 25 14  2  0  0  0  0
 25 26  1  0  0  0  0
M  END
> <ChemID>
100696

> <source_casrn>
101-54-2

> <CAS>
101-54-2

> <SMILES>
Nc1ccc(cc1)Nc1ccccc1

> <NAME>
4-AMINODIPHENYLAMINE

> <preferred_name>
N-Phenyl-1,4-benzenediamine

> <iupac>
N-phenylbenzene-1,4-diamine

> <MPID>
19770

> <dsstox_substance_id>
DTXSID7025895

> <Canonical_QSARr>
Nc1ccc(cc1)Nc1ccccc1

> <InChI_Code_QSARr>
InChI=1S/C12H12N2/c13-10-6-8-12(9-7-10)14-11-4-2-1-3-5-11/h1-9,14H,13H2

> <InChI Key_QSARr>
ATGUVEKSASEFFO-UHFFFAOYSA-N

> <Salt_Solvent>
?

> <BP>
354.0

$$$$
100700
  -INDIGO-08031720192D

 27 28  0  0  0  0  0  0  0  0999 V2000
    4.7270   -0.8335    0.0000 N   0  0  0  0  0  0  0  0  0  0  0  0
    5.2742   -2.3370    0.0000 H   0  0  0  0  0  0  0  0  0  0  0  0
    5.7555    0.3922    0.0000 H   0  0  0  0  0  0  0  0  0  0  0  0
    3.1515   -0.5556    0.0000 C   0  0  0  0  0  0  0  0  0  0  0  0
    2.6043    0.9479    0.0000 C   0  0  0  0  0  0  0  0  0  0  0  0
    3.6326    2.1735    0.0000 H   0  0  0  0  0  0  0  0  0  0  0  0
    1.0285    1.2257    0.0000 C   0  0  0  0  0  0  0  0  0  0  0  0
    0.4813    2.7292    0.0000 H   0  0  0  0  0  0  0  0  0  0  0  0
   -0.0000    0.0000    0.0000 C   0  0  0  0  0  0  0  0  0  0  0  0
   -1.5758    0.2779    0.0000 O   0  0  0  0  0  0  0  0  0  0  0  0
   -2.9614   -0.5221    0.0000 C   0  0  0  0  0  0  0  0  0  0  0  0
   -2.9614   -2.1222    0.0000 C   0  0  0  0  0  0  0  0  0  0  0  0
   -1.5758   -2.9222    0.0000 H   0  0  0  0  0  0  0  0  0  0  0  0
   -4.3469   -2.9222    0.0000 C   0  0  0  0  0  0  0  0  0  0  0  0
   -4.3469   -4.5222    0.0000 H   0  0  0  0  0  0  0  0  0  0  0  0
   -5.7325   -2.1222    0.0000 C   0  0  0  0  0  0  0  0  0  0  0  0
   -7.1183   -2.9222    0.0000 N   0  0  0  0  0  0  0  0  0  0  0  0
   -8.5039   -2.1222    0.0000 H   0  0  0  0  0  0  0  0  0  0  0  0
   -7.1183   -4.5222    0.0000 H   0  0  0  0  0  0  0  0  0  0  0  0
   -5.7325   -0.5221    0.0000 C   0  0  0  0  0  0  0  0  0  0  0  0
   -7.1183    0.2779    0.0000 H   0  0  0  0  0  0  0  0  0  0  0  0
   -4.3469    0.2779    0.0000 C   0  0  0  0  0  0  0  0  0  0  0  0
   -4.3469    1.8779    0.0000 H   0  0  0  0  0  0  0  0  0  0  0  0
    0.5472   -1.5035    0.0000 C   0  0  0  0  0  0  0  0  0  0  0  0
   -0.4813   -2.7292    0.0000 H   0  0  0  0  0  0  0  0  0  0  0  0
    2.1230   -1.7813    0.0000 C   0  0  0  0  0  0  0  0  0  0  0  0
    2.6702   -3.2849    0.0000 H   0  0  0  0  0  0  0  0  0  0  0  0
  1  2  1  0  0  0  0
  1  3  1  0  0  0  0
  1  4  1  0  0  0  0
  4  5  1  0  0  0  0
  5  6  1  0  0  0  0
  5  7  2  0  0  0  0
  7  8  1  0  0  0  0
  7  9  1  0  0  0  0
  9 10  1  0  0  0  0
 10 11  1  0  0  0  0
 11 12  1  0  0  0  0
 12 13  1  0  0  0  0
 12 14  2  0  0  0  0
 14 15  1  0  0  0  0
 14 16  1  0  0  0  0
 16 17  1  0  0  0  0
 17 18  1  0  0  0  0
 17 19  1  0  0  0  0
 16 20  2  0  0  0  0
 20 21  1  0  0  0  0
 20 22  1  0  0  0  0
 22 11  2  0  0  0  0
 22 23  1  0  0  0  0
  9 24  2  0  0  0  0
 24 25  1  0  0  0  0
 24 26  1  0  0  0  0
 26  4  2  0  0  0  0
 26 27  1  0  0  0  0
M  END
> <ChemID>
100700

> <source_casrn>
101-80-4

> <CAS>
101-80-4

> <SMILES>
Nc1ccc(cc1)Oc1ccc(N)cc1

> <NAME>
4,4'-DIAMINODIPHENYL ETHER

> <preferred_name>
4,4'-Oxydianiline

> <iupac>
4,4'-oxydianiline

> <MPID>
19774

> <dsstox_substance_id>
DTXSID0021094

> <Canonical_QSARr>
Nc1ccc(cc1)Oc1ccc(N)cc1

> <InChI_Code_QSARr>
InChI=1S/C12H12N2O/c13-9-1-5-11(6-2-9)15-12-7-3-10(14)4-8-12/h1-8H,13-14H2

> <InChI Key_QSARr>
HLBLWEWZXPIGSM-UHFFFAOYSA-N

> <Salt_Solvent>
?

> <BP>
350.0

$$$$
100704
  -INDIGO-08031720192D

 23 24  0  0  0  0  0  0  0  0999 V2000
   -0.5473   -1.5035    0.0000 C   0  0  0  0  0  0  0  0  0  0  0  0
    0.4812   -2.7292    0.0000 H   0  0  0  0  0  0  0  0  0  0  0  0
   -2.1229   -1.7813    0.0000 C   0  0  0  0  0  0  0  0  0  0  0  0
   -2.6702   -3.2849    0.0000 H   0  0  0  0  0  0  0  0  0  0  0  0
   -3.1513   -0.5556    0.0000 C   0  0  0  0  0  0  0  0  0  0  0  0
   -4.7271   -0.8335    0.0000 H   0  0  0  0  0  0  0  0  0  0  0  0
   -2.6042    0.9479    0.0000 C   0  0  0  0  0  0  0  0  0  0  0  0
   -3.6326    2.1735    0.0000 H   0  0  0  0  0  0  0  0  0  0  0  0
   -1.0284    1.2257    0.0000 C   0  0  0  0  0  0  0  0  0  0  0  0
   -0.4813    2.7292    0.0000 H   0  0  0  0  0  0  0  0  0  0  0  0
    0.0000    0.0000    0.0000 C   0  0  0  0  0  0  0  0  0  0  0  0
    1.5756    0.2779    0.0000 O   0  0  0  0  0  0  0  0  0  0  0  0
    2.9614   -0.5221    0.0000 C   0  0  0  0  0  0  0  0  0  0  0  0
    2.9614   -2.1222    0.0000 C   0  0  0  0  0  0  0  0  0  0  0  0
    1.5756   -2.9222    0.0000 H   0  0  0  0  0  0  0  0  0  0  0  0
    4.3470   -2.9222    0.0000 C   0  0  0  0  0  0  0  0  0  0  0  0
    4.3470   -4.5222    0.0000 H   0  0  0  0  0  0  0  0  0  0  0  0
    5.7326   -2.1222    0.0000 C   0  0  0  0  0  0  0  0  0  0  0  0
    7.1183   -2.9222    0.0000 H   0  0  0  0  0  0  0  0  0  0  0  0
    5.7326   -0.5221    0.0000 C   0  0  0  0  0  0  0  0  0  0  0  0
    7.1183    0.2779    0.0000 H   0  0  0  0  0  0  0  0  0  0  0  0
    4.3470    0.2779    0.0000 C   0  0  0  0  0  0  0  0  0  0  0  0
    4.3470    1.8779    0.0000 H   0  0  0  0  0  0  0  0  0  0  0  0
  1  2  1  0  0  0  0
  1  3  1  0  0  0  0
  3  4  1  0  0  0  0
  3  5  2  0  0  0  0
  5  6  1  0  0  0  0
  5  7  1  0  0  0  0
  7  8  1  0  0  0  0
  7  9  2  0  0  0  0
  9 10  1  0  0  0  0
  9 11  1  0  0  0  0
 11  1  2  0  0  0  0
 11 12  1  0  0  0  0
 12 13  1  0  0  0  0
 13 14  1  0  0  0  0
 14 15  1  0  0  0  0
 14 16  2  0  0  0  0
 16 17  1  0  0  0  0
 16 18  1  0  0  0  0
 18 19  1  0  0  0  0
 18 20  2  0  0  0  0
 20 21  1  0  0  0  0
 20 22  1  0  0  0  0
 22 13  2  0  0  0  0
 22 23  1  0  0  0  0
M  END
> <ChemID>
100704

> <source_casrn>
101-84-8

> <CAS>
101-84-8

> <SMILES>
c1ccccc1Oc1ccccc1

> <NAME>
DIPHENYL ETHER

> <preferred_name>
Diphenyl oxide

> <iupac>
diphenyl ether

> <MPID>
19778

> <dsstox_substance_id>
DTXSID9021847

> <Canonical_QSARr>
c1ccccc1Oc1ccccc1

> <InChI_Code_QSARr>
InChI=1S/C12H10O/c1-3-7-11(8-4-1)13-12-9-5-2-6-10-12/h1-10H

> <InChI Key_QSARr>
USIUVYZYUHIAEV-UHFFFAOYSA-N

> <Salt_Solvent>
?

> <BP>
258.0

$$$$
100708
  -INDIGO-08031720192D

 28 29  0  0  0  0  0  0  0  0999 V2000
    2.7712   -1.6000    0.0000 O   0  0  0  0  0  0  0  0  0  0  0  0
    2.7712   -0.0000    0.0000 C   0  0  0  0  0  0  0  0  0  0  0  0
    4.1569    0.8000    0.0000 N   0  0  0  0  0  0  0  0  0  0  0  0
    4.1569    2.4000    0.0000 H   0  0  0  0  0  0  0  0  0  0  0  0
    5.5427   -0.0000    0.0000 C   0  0  0  0  0  0  0  0  0  0  0  0
    5.5427   -1.6000    0.0000 C   0  0  0  0  0  0  0  0  0  0  0  0
    4.1569   -2.4000    0.0000 H   0  0  0  0  0  0  0  0  0  0  0  0
    6.9282   -2.4000    0.0000 C   0  0  0  0  0  0  0  0  0  0  0  0
    6.9282   -4.0000    0.0000 H   0  0  0  0  0  0  0  0  0  0  0  0
    8.3140   -1.6000    0.0000 C   0  0  0  0  0  0  0  0  0  0  0  0
    9.6995   -2.4000    0.0000 H   0  0  0  0  0  0  0  0  0  0  0  0
    8.3140   -0.0000    0.0000 C   0  0  0  0  0  0  0  0  0  0  0  0
    9.6995    0.8000    0.0000 H   0  0  0  0  0  0  0  0  0  0  0  0
    6.9282    0.8000    0.0000 C   0  0  0  0  0  0  0  0  0  0  0  0
    6.9282    2.4000    0.0000 H   0  0  0  0  0  0  0  0  0  0  0  0
    1.3856    0.8000    0.0000 N   0  0  0  0  0  0  0  0  0  0  0  0
    1.3856    2.4000    0.0000 H   0  0  0  0  0  0  0  0  0  0  0  0
   -0.0001   -0.0000    0.0000 C   0  0  0  0  0  0  0  0  0  0  0  0
   -1.3856    0.8000    0.0000 C   0  0  0  0  0  0  0  0  0  0  0  0
   -1.3856    2.4000    0.0000 H   0  0  0  0  0  0  0  0  0  0  0  0
   -2.7714   -0.0000    0.0000 C   0  0  0  0  0  0  0  0  0  0  0  0
   -4.1569    0.8000    0.0000 H   0  0  0  0  0  0  0  0  0  0  0  0
   -2.7712   -1.6000    0.0000 C   0  0  0  0  0  0  0  0  0  0  0  0
   -4.1569   -2.4000    0.0000 H   0  0  0  0  0  0  0  0  0  0  0  0
   -1.3856   -2.4000    0.0000 C   0  0  0  0  0  0  0  0  0  0  0  0
   -1.3856   -4.0000    0.0000 H   0  0  0  0  0  0  0  0  0  0  0  0
   -0.0001   -1.6000    0.0000 C   0  0  0  0  0  0  0  0  0  0  0  0
    1.3856   -2.4000    0.0000 H   0  0  0  0  0  0  0  0  0  0  0  0
  1  2  2  0  0  0  0
  2  3  1  0  0  0  0
  3  4  1  0  0  0  0
  3  5  1  0  0  0  0
  5  6  1  0  0  0  0
  6  7  1  0  0  0  0
  6  8  2  0  0  0  0
  8  9  1  0  0  0  0
  8 10  1  0  0  0  0
 10 11  1  0  0  0  0
 10 12  2  0  0  0  0
 12 13  1  0  0  0  0
 12 14  1  0  0  0  0
 14  5  2  0  0  0  0
 14 15  1  0  0  0  0
  2 16  1  0  0  0  0
 16 17  1  0  0  0  0
 16 18  1  0  0  0  0
 18 19  1  0  0  0  0
 19 20  1  0  0  0  0
 19 21  2  0  0  0  0
 21 22  1  0  0  0  0
 21 23  1  0  0  0  0
 23 24  1  0  0  0  0
 23 25  2  0  0  0  0
 25 26  1  0  0  0  0
 25 27  1  0  0  0  0
 27 18  2  0  0  0  0
 27 28  1  0  0  0  0
M  END
> <ChemID>
100708

> <source_casrn>
102-07-8

> <CAS>
102-07-8

> <SMILES>
O=C(Nc1ccccc1)Nc1ccccc1

> <NAME>
DIPHENYLUREA, SYM

> <preferred_name>
Diphenylurea

> <iupac>
1,3-diphenylurea

> <MPID>
19782

> <dsstox_substance_id>
DTXSID2025183

> <Canonical_QSARr>
O=C(Nc1ccccc1)Nc1ccccc1

> <InChI_Code_QSARr>
InChI=1S/C13H12N2O/c16-13(14-11-7-3-1-4-8-11)15-12-9-5-2-6-10-12/h1-10H,(H2,14,15,16)

> <InChI Key_QSARr>
GWEHVDNNLFDJLR-UHFFFAOYSA-N

> <Salt_Solvent>
?

> <BP>
262.0

$$$$
100712
  -INDIGO-08031720192D

 21 21  0  0  0  0  0  0  0  0999 V2000
   -0.0001   -0.0000    0.0000 B   0  0  0  0  0  0  0  0  0  0  0  0
    1.3856    0.8000    0.0000 O   0  0  0  0  0  0  0  0  0  0  0  0
    2.7713   -0.0000    0.0000 C   0  0  0  0  0  0  0  0  0  0  0  0
    4.1569   -0.8000    0.0000 H   0  0  0  0  0  0  0  0  0  0  0  0
    4.1569    0.8000    0.0000 H   0  0  0  0  0  0  0  0  0  0  0  0
    2.7713   -1.6000    0.0000 H   0  0  0  0  0  0  0  0  0  0  0  0
   -1.3857    0.8000    0.0000 O   0  0  0  0  0  0  0  0  0  0  0  0
   -2.7712   -0.0000    0.0000 B   0  0  0  0  0  0  0  0  0  0  0  0
   -4.1569    0.8000    0.0000 O   0  0  0  0  0  0  0  0  0  0  0  0
   -5.5425   -0.0000    0.0000 C   0  0  0  0  0  0  0  0  0  0  0  0
   -6.9282    0.8000    0.0000 H   0  0  0  0  0  0  0  0  0  0  0  0
   -6.9282   -0.8000    0.0000 H   0  0  0  0  0  0  0  0  0  0  0  0
   -5.5425   -1.6000    0.0000 H   0  0  0  0  0  0  0  0  0  0  0  0
   -2.7712   -1.6000    0.0000 O   0  0  0  0  0  0  0  0  0  0  0  0
   -1.3856   -2.4000    0.0000 B   0  0  0  0  0  0  0  0  0  0  0  0
   -1.3857   -4.0000    0.0000 O   0  0  0  0  0  0  0  0  0  0  0  0
   -2.7712   -4.8000    0.0000 C   0  0  0  0  0  0  0  0  0  0  0  0
   -2.7712   -6.4000    0.0000 H   0  0  0  0  0  0  0  0  0  0  0  0
   -4.1569   -5.6000    0.0000 H   0  0  0  0  0  0  0  0  0  0  0  0
   -1.3857   -5.6000    0.0000 H   0  0  0  0  0  0  0  0  0  0  0  0
   -0.0001   -1.6000    0.0000 O   0  0  0  0  0  0  0  0  0  0  0  0
  1  2  1  0  0  0  0
  2  3  1  0  0  0  0
  3  4  1  0  0  0  0
  3  5  1  0  0  0  0
  3  6  1  0  0  0  0
  1  7  1  0  0  0  0
  7  8  1  0  0  0  0
  8  9  1  0  0  0  0
  9 10  1  0  0  0  0
 10 11  1  0  0  0  0
 10 12  1  0  0  0  0
 10 13  1  0  0  0  0
  8 14  1  0  0  0  0
 14 15  1  0  0  0  0
 15 16  1  0  0  0  0
 16 17  1  0  0  0  0
 17 18  1  0  0  0  0
 17 19  1  0  0  0  0
 17 20  1  0  0  0  0
 15 21  1  0  0  0  0
 21  1  1  0  0  0  0
M  END
> <ChemID>
100712

> <source_casrn>
102-24-9

> <CAS>
102-24-9

> <SMILES>
CO[b]1o[b](o[b](o1)OC)OC

> <NAME>
Boroxin, trimethoxy-

> <preferred_name>
Trimethoxycyclotriboroxane

> <iupac>
trimethoxyboroxin

> <MPID>
19786

> <dsstox_substance_id>
DTXSID6051514

> <Canonical_QSARr>
CO[b]1o[b](o[b](o1)OC)OC

> <InChI_Code_QSARr>
InChI=1S/C3H9B3O6/c1-7-4-10-5(8-2)12-6(9-3)11-4/h1-3H3

> <InChI Key_QSARr>
ZFMOJHVRFMOIGF-UHFFFAOYSA-N

> <Salt_Solvent>
?

> <BP>
130.0

$$$$
100717
  -INDIGO-08031720192D

 15 15  0  0  0  0  0  0  0  0999 V2000
    0.0000   -0.0000    0.0000 C   0  0  0  0  0  0  0  0  0  0  0  0
   -0.8001    1.3856    0.0000 C   0  0  0  0  0  0  0  0  0  0  0  0
    0.0000    2.7713    0.0000 H   0  0  0  0  0  0  0  0  0  0  0  0
   -2.4001    1.3856    0.0000 C   0  0  0  0  0  0  0  0  0  0  0  0
   -3.2000    2.7713    0.0000 Cl  0  0  0  0  0  0  0  0  0  0  0  0
   -3.2000   -0.0000    0.0000 C   0  0  0  0  0  0  0  0  0  0  0  0
   -4.8000   -0.0000    0.0000 Cl  0  0  0  0  0  0  0  0  0  0  0  0
   -2.4001   -1.3856    0.0000 C   0  0  0  0  0  0  0  0  0  0  0  0
   -3.2000   -2.7713    0.0000 H   0  0  0  0  0  0  0  0  0  0  0  0
   -0.8001   -1.3856    0.0000 C   0  0  0  0  0  0  0  0  0  0  0  0
    0.0000   -2.7713    0.0000 H   0  0  0  0  0  0  0  0  0  0  0  0
    1.6000   -0.0000    0.0000 C   0  0  0  0  0  0  0  0  0  0  0  0
    3.2000   -0.0000    0.0000 H   0  0  0  0  0  0  0  0  0  0  0  0
    2.4001   -1.3856    0.0000 H   0  0  0  0  0  0  0  0  0  0  0  0
    2.4001    1.3856    0.0000 Cl  0  0  0  0  0  0  0  0  0  0  0  0
  1  2  1  0  0  0  0
  2  3  1  0  0  0  0
  2  4  2  0  0  0  0
  4  5  1  0  0  0  0
  4  6  1  0  0  0  0
  6  7  1  0  0  0  0
  6  8  2  0  0  0  0
  8  9  1  0  0  0  0
  8 10  1  0  0  0  0
 10  1  2  0  0  0  0
 10 11  1  0  0  0  0
  1 12  1  0  0  0  0
 12 13  1  0  0  0  0
 12 14  1  0  0  0  0
 12 15  1  0  0  0  0
M  END
> <ChemID>
100717

> <source_casrn>
102-47-6

> <CAS>
102-47-6

> <SMILES>
ClCc1cc(Cl)c(Cl)cc1

> <NAME>
Benzene, 1,2-dichloro-4-(chloromethyl)-

> <preferred_name>
Benzene, 1,2-dichloro-4-(chloromethyl)-

> <iupac>
1,2-DICHLORO-4-(CHLOROMETHYL)BENZENE

> <MPID>
19790

> <dsstox_substance_id>
DTXSID9059252

> <Canonical_QSARr>
ClCc1cc(Cl)c(Cl)cc1

> <InChI_Code_QSARr>
InChI=1S/C7H5Cl3/c8-4-5-1-2-6(9)7(10)3-5/h1-3H,4H2

> <InChI Key_QSARr>
YZIFVWOCPGPNHB-UHFFFAOYSA-N

> <Salt_Solvent>
?

> <BP>
241.0

$$$$
100722
  -INDIGO-08031720192D

 22 22  0  0  0  0  0  0  0  0999 V2000
    3.2001    0.0000    0.0000 C   0  0  0  0  0  0  0  0  0  0  0  0
    2.4001    1.3856    0.0000 C   0  0  0  0  0  0  0  0  0  0  0  0
    3.2001    2.7713    0.0000 H   0  0  0  0  0  0  0  0  0  0  0  0
    0.7999    1.3856    0.0000 C   0  0  0  0  0  0  0  0  0  0  0  0
   -0.0001    2.7713    0.0000 N   0  0  0  0  0  0  0  0  0  0  0  0
    0.7999    4.1569    0.0000 H   0  0  0  0  0  0  0  0  0  0  0  0
   -1.6000    2.7713    0.0000 H   0  0  0  0  0  0  0  0  0  0  0  0
   -0.0001    0.0000    0.0000 C   0  0  0  0  0  0  0  0  0  0  0  0
   -1.6000    0.0000    0.0000 O   0  0  0  0  0  0  0  0  0  0  0  0
   -2.4000   -1.3856    0.0000 C   0  0  0  0  0  0  0  0  0  0  0  0
   -4.0000   -1.3856    0.0000 H   0  0  0  0  0  0  0  0  0  0  0  0
   -3.2000   -2.7713    0.0000 H   0  0  0  0  0  0  0  0  0  0  0  0
   -3.2000    0.0000    0.0000 H   0  0  0  0  0  0  0  0  0  0  0  0
    0.7999   -1.3856    0.0000 C   0  0  0  0  0  0  0  0  0  0  0  0
   -0.0001   -2.7713    0.0000 H   0  0  0  0  0  0  0  0  0  0  0  0
    2.4001   -1.3856    0.0000 C   0  0  0  0  0  0  0  0  0  0  0  0
    3.2001   -2.7713    0.0000 H   0  0  0  0  0  0  0  0  0  0  0  0
    4.8000    0.0000    0.0000 O   0  0  0  0  0  0  0  0  0  0  0  0
    5.6000   -1.3856    0.0000 C   0  0  0  0  0  0  0  0  0  0  0  0
    7.2000   -1.3856    0.0000 H   0  0  0  0  0  0  0  0  0  0  0  0
    6.4000   -2.7713    0.0000 H   0  0  0  0  0  0  0  0  0  0  0  0
    6.4000    0.0000    0.0000 H   0  0  0  0  0  0  0  0  0  0  0  0
  1  2  1  0  0  0  0
  2  3  1  0  0  0  0
  2  4  2  0  0  0  0
  4  5  1  0  0  0  0
  5  6  1  0  0  0  0
  5  7  1  0  0  0  0
  4  8  1  0  0  0  0
  8  9  1  0  0  0  0
  9 10  1  0  0  0  0
 10 11  1  0  0  0  0
 10 12  1  0  0  0  0
 10 13  1  0  0  0  0
  8 14  2  0  0  0  0
 14 15  1  0  0  0  0
 14 16  1  0  0  0  0
 16  1  2  0  0  0  0
 16 17  1  0  0  0  0
  1 18  1  0  0  0  0
 18 19  1  0  0  0  0
 19 20  1  0  0  0  0
 19 21  1  0  0  0  0
 19 22  1  0  0  0  0
M  END
> <ChemID>
100722

> <source_casrn>
102-56-7

> <CAS>
102-56-7

> <SMILES>
COc1ccc(cc1N)OC

> <NAME>
2,5-DIMETHOXYANILINE

> <preferred_name>
Benzenamine, 2,5-dimethoxy-

> <iupac>
2,5-Dimethoxyaniline

> <MPID>
19794

> <dsstox_substance_id>
DTXSID4059257

> <Canonical_QSARr>
COc1ccc(cc1N)OC

> <InChI_Code_QSARr>
InChI=1S/C8H11NO2/c1-10-6-3-4-8(11-2)7(9)5-6/h3-5H,9H2,1-2H3

> <InChI Key_QSARr>
NAZDVUBIEPVUKE-UHFFFAOYSA-N

> <Salt_Solvent>
?

> <BP>
270.0

$$$$
100726
  -INDIGO-08031720192D

 29 28  0  0  0  0  0  0  0  0999 V2000
    1.5999    0.0000    0.0000 C   0  0  0  0  0  0  0  0  0  0  0  0
    1.8089    1.5863    0.0000 H   0  0  0  0  0  0  0  0  0  0  0  0
    2.8693    0.9741    0.0000 H   0  0  0  0  0  0  0  0  0  0  0  0
    0.0001    0.0000    0.0000 C   0  0  0  0  0  0  0  0  0  0  0  0
    0.0001   -1.6001    0.0000 H   0  0  0  0  0  0  0  0  0  0  0  0
   -1.5999    0.0000    0.0000 C   0  0  0  0  0  0  0  0  0  0  0  0
   -2.8693    0.9741    0.0000 H   0  0  0  0  0  0  0  0  0  0  0  0
   -1.8089    1.5863    0.0000 H   0  0  0  0  0  0  0  0  0  0  0  0
   -2.3999   -1.3857    0.0000 O   0  0  0  0  0  0  0  0  0  0  0  0
   -4.0000   -1.3857    0.0000 C   0  0  0  0  0  0  0  0  0  0  0  0
   -4.8000    0.0000    0.0000 O   0  0  0  0  0  0  0  0  0  0  0  0
   -4.8000   -2.7712    0.0000 C   0  0  0  0  0  0  0  0  0  0  0  0
   -5.6000   -4.1569    0.0000 H   0  0  0  0  0  0  0  0  0  0  0  0
   -6.4000   -2.7712    0.0000 H   0  0  0  0  0  0  0  0  0  0  0  0
   -4.0000   -4.1569    0.0000 H   0  0  0  0  0  0  0  0  0  0  0  0
    0.0001    1.6000    0.0000 O   0  0  0  0  0  0  0  0  0  0  0  0
    1.2257    2.6285    0.0000 C   0  0  0  0  0  0  0  0  0  0  0  0
    2.7292    2.0812    0.0000 O   0  0  0  0  0  0  0  0  0  0  0  0
    0.9478    4.2042    0.0000 C   0  0  0  0  0  0  0  0  0  0  0  0
    0.6700    5.7798    0.0000 H   0  0  0  0  0  0  0  0  0  0  0  0
    2.1736    5.2326    0.0000 H   0  0  0  0  0  0  0  0  0  0  0  0
   -0.5558    4.7514    0.0000 H   0  0  0  0  0  0  0  0  0  0  0  0
    2.3999   -1.3857    0.0000 O   0  0  0  0  0  0  0  0  0  0  0  0
    4.0000   -1.3857    0.0000 C   0  0  0  0  0  0  0  0  0  0  0  0
    4.8000    0.0000    0.0000 O   0  0  0  0  0  0  0  0  0  0  0  0
    4.8000   -2.7712    0.0000 C   0  0  0  0  0  0  0  0  0  0  0  0
    5.6000   -4.1569    0.0000 H   0  0  0  0  0  0  0  0  0  0  0  0
    6.4000   -2.7712    0.0000 H   0  0  0  0  0  0  0  0  0  0  0  0
    4.0000   -4.1569    0.0000 H   0  0  0  0  0  0  0  0  0  0  0  0
  1  2  1  0  0  0  0
  1  3  1  0  0  0  0
  1  4  1  0  0  0  0
  4  5  1  0  0  0  0
  4  6  1  0  0  0  0
  6  7  1  0  0  0  0
  6  8  1  0  0  0  0
  6  9  1  0  0  0  0
  9 10  1  0  0  0  0
 10 11  2  0  0  0  0
 10 12  1  0  0  0  0
 12 13  1  0  0  0  0
 12 14  1  0  0  0  0
 12 15  1  0  0  0  0
  4 16  1  0  0  0  0
 16 17  1  0  0  0  0
 17 18  2  0  0  0  0
 17 19  1  0  0  0  0
 19 20  1  0  0  0  0
 19 21  1  0  0  0  0
 19 22  1  0  0  0  0
  1 23  1  0  0  0  0
 23 24  1  0  0  0  0
 24 25  2  0  0  0  0
 24 26  1  0  0  0  0
 26 27  1  0  0  0  0
 26 28  1  0  0  0  0
 26 29  1  0  0  0  0
M  END
> <ChemID>
100726

> <source_casrn>
102-76-1

> <CAS>
102-76-1

> <SMILES>
CC(=O)OC(COC(C)=O)COC(C)=O

> <NAME>
TRIACETIN

> <preferred_name>
Triacetin

> <iupac>
propane-1,2,3-triyl triacetate

> <MPID>
19798

> <dsstox_substance_id>
DTXSID3026691

> <Canonical_QSARr>
CC(=O)OC(COC(C)=O)COC(C)=O

> <InChI_Code_QSARr>
InChI=1S/C9H14O6/c1-6(10)13-4-9(15-8(3)12)5-14-7(2)11/h9H,4-5H2,1-3H3

> <InChI Key_QSARr>
URAYPUMNDPQOKB-UHFFFAOYSA-N

> <Salt_Solvent>
?

> <BP>
259.0

$$$$
100730
  -INDIGO-08031720192D

 39 38  0  0  0  0  0  0  0  0999 V2000
    0.0001    0.0000    0.0000 N   0  0  0  0  0  0  0  0  0  0  0  0
    1.6000    0.0000    0.0000 C   0  0  0  0  0  0  0  0  0  0  0  0
    2.8693   -0.9740    0.0000 H   0  0  0  0  0  0  0  0  0  0  0  0
    1.8088   -1.5863    0.0000 H   0  0  0  0  0  0  0  0  0  0  0  0
    2.6285    1.2257    0.0000 C   0  0  0  0  0  0  0  0  0  0  0  0
    1.5475    2.4052    0.0000 H   0  0  0  0  0  0  0  0  0  0  0  0
    2.6983    2.8241    0.0000 H   0  0  0  0  0  0  0  0  0  0  0  0
    4.2041    0.9479    0.0000 C   0  0  0  0  0  0  0  0  0  0  0  0
    5.2850   -0.2318    0.0000 H   0  0  0  0  0  0  0  0  0  0  0  0
    4.1343   -0.6507    0.0000 H   0  0  0  0  0  0  0  0  0  0  0  0
    5.2326    2.1735    0.0000 C   0  0  0  0  0  0  0  0  0  0  0  0
    6.2610    3.3992    0.0000 H   0  0  0  0  0  0  0  0  0  0  0  0
    6.8083    1.8957    0.0000 H   0  0  0  0  0  0  0  0  0  0  0  0
    4.6853    3.6771    0.0000 H   0  0  0  0  0  0  0  0  0  0  0  0
   -0.8000    1.3857    0.0000 C   0  0  0  0  0  0  0  0  0  0  0  0
    0.4693    2.3597    0.0000 H   0  0  0  0  0  0  0  0  0  0  0  0
   -0.5912    2.9719    0.0000 H   0  0  0  0  0  0  0  0  0  0  0  0
   -2.3757    1.6635    0.0000 C   0  0  0  0  0  0  0  0  0  0  0  0
   -3.7948    0.9247    0.0000 H   0  0  0  0  0  0  0  0  0  0  0  0
   -2.8568    0.1375    0.0000 H   0  0  0  0  0  0  0  0  0  0  0  0
   -2.9230    3.1669    0.0000 C   0  0  0  0  0  0  0  0  0  0  0  0
   -1.5037    3.9058    0.0000 H   0  0  0  0  0  0  0  0  0  0  0  0
   -2.4418    4.6930    0.0000 H   0  0  0  0  0  0  0  0  0  0  0  0
   -4.4986    3.4448    0.0000 C   0  0  0  0  0  0  0  0  0  0  0  0
   -6.0743    3.7226    0.0000 H   0  0  0  0  0  0  0  0  0  0  0  0
   -5.0458    4.9483    0.0000 H   0  0  0  0  0  0  0  0  0  0  0  0
   -5.5270    2.2192    0.0000 H   0  0  0  0  0  0  0  0  0  0  0  0
   -0.8000   -1.3857    0.0000 C   0  0  0  0  0  0  0  0  0  0  0  0
   -2.2782   -0.7734    0.0000 H   0  0  0  0  0  0  0  0  0  0  0  0
   -2.2782   -1.9979    0.0000 H   0  0  0  0  0  0  0  0  0  0  0  0
   -0.2527   -2.8891    0.0000 C   0  0  0  0  0  0  0  0  0  0  0  0
    1.0966   -3.7489    0.0000 H   0  0  0  0  0  0  0  0  0  0  0  0
    1.3093   -2.5429    0.0000 H   0  0  0  0  0  0  0  0  0  0  0  0
   -1.2812   -4.1149    0.0000 C   0  0  0  0  0  0  0  0  0  0  0  0
   -2.6307   -3.2551    0.0000 H   0  0  0  0  0  0  0  0  0  0  0  0
   -2.8434   -4.4611    0.0000 H   0  0  0  0  0  0  0  0  0  0  0  0
   -0.7339   -5.6183    0.0000 N   0  0  0  0  0  0  0  0  0  0  0  0
   -1.7624   -6.8440    0.0000 H   0  0  0  0  0  0  0  0  0  0  0  0
    0.8416   -5.8961    0.0000 H   0  0  0  0  0  0  0  0  0  0  0  0
  1  2  1  0  0  0  0
  2  3  1  0  0  0  0
  2  4  1  0  0  0  0
  2  5  1  0  0  0  0
  5  6  1  0  0  0  0
  5  7  1  0  0  0  0
  5  8  1  0  0  0  0
  8  9  1  0  0  0  0
  8 10  1  0  0  0  0
  8 11  1  0  0  0  0
 11 12  1  0  0  0  0
 11 13  1  0  0  0  0
 11 14  1  0  0  0  0
  1 15  1  0  0  0  0
 15 16  1  0  0  0  0
 15 17  1  0  0  0  0
 15 18  1  0  0  0  0
 18 19  1  0  0  0  0
 18 20  1  0  0  0  0
 18 21  1  0  0  0  0
 21 22  1  0  0  0  0
 21 23  1  0  0  0  0
 21 24  1  0  0  0  0
 24 25  1  0  0  0  0
 24 26  1  0  0  0  0
 24 27  1  0  0  0  0
  1 28  1  0  0  0  0
 28 29  1  0  0  0  0
 28 30  1  0  0  0  0
 28 31  1  0  0  0  0
 31 32  1  0  0  0  0
 31 33  1  0  0  0  0
 31 34  1  0  0  0  0
 34 35  1  0  0  0  0
 34 36  1  0  0  0  0
 34 37  1  0  0  0  0
 37 38  1  0  0  0  0
 37 39  1  0  0  0  0
M  END
> <ChemID>
100730

> <source_casrn>
102-83-0

> <CAS>
102-83-0

> <SMILES>
CCCCN(CCCN)CCCC

> <NAME>
1,3-Propanediamine, N,N-dibutyl-

> <preferred_name>
1,3-Propanediamine, N,N-dibutyl-

> <iupac>
N,N-dibutylpropane-1,3-diamine

> <MPID>
19802

> <dsstox_substance_id>
DTXSID8059261

> <Canonical_QSARr>
CCCCN(CCCN)CCCC

> <InChI_Code_QSARr>
InChI=1S/C11H26N2/c1-3-5-9-13(10-6-4-2)11-7-8-12/h3-12H2,1-2H3

> <InChI Key_QSARr>
KYCGURZGBKFEQB-UHFFFAOYSA-N

> <Salt_Solvent>
?

> <BP>
205.0

$$$$
100734
  -INDIGO-08031720192D

 32 31  0  0  0  0  0  0  0  0999 V2000
   -3.2000    2.7713    0.0000 C   0  0  0  0  0  0  0  0  0  0  0  0
   -2.3999    4.1569    0.0000 O   0  0  0  0  0  0  0  0  0  0  0  0
   -2.3999    1.3857    0.0000 O   0  0  0  0  0  0  0  0  0  0  0  0
   -0.7999    1.3857    0.0000 C   0  0  0  0  0  0  0  0  0  0  0  0
   -0.5911    2.9720    0.0000 H   0  0  0  0  0  0  0  0  0  0  0  0
    0.4693    2.3597    0.0000 H   0  0  0  0  0  0  0  0  0  0  0  0
   -0.0001   -0.0000    0.0000 C   0  0  0  0  0  0  0  0  0  0  0  0
    0.8000   -1.3857    0.0000 H   0  0  0  0  0  0  0  0  0  0  0  0
    1.5035    0.5473    0.0000 C   0  0  0  0  0  0  0  0  0  0  0  0
    1.7124   -1.0390    0.0000 H   0  0  0  0  0  0  0  0  0  0  0  0
    2.7730   -0.4268    0.0000 H   0  0  0  0  0  0  0  0  0  0  0  0
    2.5319    1.7728    0.0000 C   0  0  0  0  0  0  0  0  0  0  0  0
    2.6017    3.3713    0.0000 H   0  0  0  0  0  0  0  0  0  0  0  0
    1.4511    2.9525    0.0000 H   0  0  0  0  0  0  0  0  0  0  0  0
    4.1077    1.4951    0.0000 C   0  0  0  0  0  0  0  0  0  0  0  0
    4.0378   -0.1034    0.0000 H   0  0  0  0  0  0  0  0  0  0  0  0
    5.1887    0.3154    0.0000 H   0  0  0  0  0  0  0  0  0  0  0  0
    5.1360    2.7208    0.0000 C   0  0  0  0  0  0  0  0  0  0  0  0
    6.1646    3.9464    0.0000 H   0  0  0  0  0  0  0  0  0  0  0  0
    6.7118    2.4429    0.0000 H   0  0  0  0  0  0  0  0  0  0  0  0
    4.5888    4.2242    0.0000 H   0  0  0  0  0  0  0  0  0  0  0  0
   -1.2257   -1.0285    0.0000 C   0  0  0  0  0  0  0  0  0  0  0  0
   -2.8241   -1.0983    0.0000 H   0  0  0  0  0  0  0  0  0  0  0  0
   -2.4053    0.0525    0.0000 H   0  0  0  0  0  0  0  0  0  0  0  0
   -0.9478   -2.6042    0.0000 C   0  0  0  0  0  0  0  0  0  0  0  0
   -0.6699   -4.1798    0.0000 H   0  0  0  0  0  0  0  0  0  0  0  0
   -2.1734   -3.6327    0.0000 H   0  0  0  0  0  0  0  0  0  0  0  0
    0.5558   -3.1514    0.0000 H   0  0  0  0  0  0  0  0  0  0  0  0
   -4.8000    2.7713    0.0000 C   0  0  0  0  0  0  0  0  0  0  0  0
   -6.4000    2.7713    0.0000 H   0  0  0  0  0  0  0  0  0  0  0  0
   -5.5999    4.1569    0.0000 H   0  0  0  0  0  0  0  0  0  0  0  0
   -5.5999    1.3857    0.0000 H   0  0  0  0  0  0  0  0  0  0  0  0
  1  2  2  0  0  0  0
  1  3  1  0  0  0  0
  3  4  1  0  0  0  0
  4  5  1  0  0  0  0
  4  6  1  0  0  0  0
  4  7  1  0  0  0  0
  7  8  1  0  0  0  0
  7  9  1  0  0  0  0
  9 10  1  0  0  0  0
  9 11  1  0  0  0  0
  9 12  1  0  0  0  0
 12 13  1  0  0  0  0
 12 14  1  0  0  0  0
 12 15  1  0  0  0  0
 15 16  1  0  0  0  0
 15 17  1  0  0  0  0
 15 18  1  0  0  0  0
 18 19  1  0  0  0  0
 18 20  1  0  0  0  0
 18 21  1  0  0  0  0
  7 22  1  0  0  0  0
 22 23  1  0  0  0  0
 22 24  1  0  0  0  0
 22 25  1  0  0  0  0
 25 26  1  0  0  0  0
 25 27  1  0  0  0  0
 25 28  1  0  0  0  0
  1 29  1  0  0  0  0
 29 30  1  0  0  0  0
 29 31  1  0  0  0  0
 29 32  1  0  0  0  0
M  END
> <ChemID>
100734

> <source_casrn>
103-09-3

> <CAS>
103-09-3

> <SMILES>
CCCCC(COC(C)=O)CC

> <NAME>
2-ETHYLHEXYLACETATE

> <preferred_name>
2-Ethylhexyl acetate

> <iupac>
2-ethylhexyl acetate

> <MPID>
19806

> <dsstox_substance_id>
DTXSID8026694

> <Canonical_QSARr>
CCCCC(COC(C)=O)CC

> <InChI_Code_QSARr>
InChI=1S/C10H20O2/c1-4-6-7-10(5-2)8-12-9(3)11/h10H,4-8H2,1-3H3

> <InChI Key_QSARr>
WOYWLLHHWAMFCB-UHFFFAOYSA-N

> <Salt_Solvent>
?

> <BP>
199.0

$$$$
100738
  -INDIGO-08031720192D

 22 22  0  0  0  0  0  0  0  0999 V2000
   -4.1569    0.8000    0.0000 C   0  0  0  0  0  0  0  0  0  0  0  0
   -2.7712   -0.0000    0.0000 C   0  0  0  0  0  0  0  0  0  0  0  0
   -2.7712   -1.6000    0.0000 H   0  0  0  0  0  0  0  0  0  0  0  0
   -1.3857    0.8000    0.0000 C   0  0  0  0  0  0  0  0  0  0  0  0
   -1.3857    2.4000    0.0000 H   0  0  0  0  0  0  0  0  0  0  0  0
    0.0000   -0.0000    0.0000 C   0  0  0  0  0  0  0  0  0  0  0  0
    1.3857    0.8000    0.0000 C   0  0  0  0  0  0  0  0  0  0  0  0
    1.3857    2.4000    0.0000 H   0  0  0  0  0  0  0  0  0  0  0  0
    2.7712   -0.0000    0.0000 C   0  0  0  0  0  0  0  0  0  0  0  0
    4.1569    0.8000    0.0000 H   0  0  0  0  0  0  0  0  0  0  0  0
    2.7712   -1.6000    0.0000 C   0  0  0  0  0  0  0  0  0  0  0  0
    4.1569   -2.4000    0.0000 H   0  0  0  0  0  0  0  0  0  0  0  0
    1.3857   -2.4000    0.0000 C   0  0  0  0  0  0  0  0  0  0  0  0
    1.3857   -4.0000    0.0000 H   0  0  0  0  0  0  0  0  0  0  0  0
    0.0000   -1.6000    0.0000 C   0  0  0  0  0  0  0  0  0  0  0  0
   -1.3857   -2.4000    0.0000 H   0  0  0  0  0  0  0  0  0  0  0  0
   -4.1569    2.4000    0.0000 O   0  0  0  0  0  0  0  0  0  0  0  0
   -5.5426   -0.0000    0.0000 O   0  0  0  0  0  0  0  0  0  0  0  0
   -6.9281    0.8000    0.0000 C   0  0  0  0  0  0  0  0  0  0  0  0
   -8.3138    1.6000    0.0000 H   0  0  0  0  0  0  0  0  0  0  0  0
   -8.3138   -0.0000    0.0000 H   0  0  0  0  0  0  0  0  0  0  0  0
   -6.9281    2.4000    0.0000 H   0  0  0  0  0  0  0  0  0  0  0  0
  1  2  1  0  0  0  0
  2  3  1  0  0  0  0
  2  4  2  0  0  0  0
  4  5  1  0  0  0  0
  4  6  1  0  0  0  0
  6  7  1  0  0  0  0
  7  8  1  0  0  0  0
  7  9  2  0  0  0  0
  9 10  1  0  0  0  0
  9 11  1  0  0  0  0
 11 12  1  0  0  0  0
 11 13  2  0  0  0  0
 13 14  1  0  0  0  0
 13 15  1  0  0  0  0
 15  6  2  0  0  0  0
 15 16  1  0  0  0  0
  1 17  2  0  0  0  0
  1 18  1  0  0  0  0
 18 19  1  0  0  0  0
 19 20  1  0  0  0  0
 19 21  1  0  0  0  0
 19 22  1  0  0  0  0
M  END
> <ChemID>
100738

> <source_casrn>
103-26-4

> <CAS>
103-26-4

> <SMILES>
COC(=O)C=Cc1ccccc1

> <NAME>
CINNAMIC ACID, METHYL ESTER

> <preferred_name>
Methyl cinnamate

> <iupac>
methyl 3-phenylprop-2-enoate

> <MPID>
19810

> <dsstox_substance_id>
DTXSID6042151

> <Canonical_QSARr>
COC(=O)C=Cc1ccccc1

> <InChI_Code_QSARr>
InChI=1S/C10H10O2/c1-12-10(11)8-7-9-5-3-2-4-6-9/h2-8H,1H3/b8-7+

> <InChI Key_QSARr>
CCRCUPLGCSFEDV-BQYQJAHWSA-N

> <Salt_Solvent>
?

> <BP>
260.4

$$$$
100742
  -INDIGO-08031720192D

 24 25  0  0  0  0  0  0  0  0999 V2000
    1.3857    0.8000    0.0000 N   0  0  0  0  0  0  0  0  0  0  0  0
    2.7712    0.0000    0.0000 N   0  0  0  0  0  0  0  0  0  0  0  0
    4.1569    0.8000    0.0000 C   0  0  0  0  0  0  0  0  0  0  0  0
    4.1569    2.4000    0.0000 C   0  0  0  0  0  0  0  0  0  0  0  0
    2.7712    3.2001    0.0000 H   0  0  0  0  0  0  0  0  0  0  0  0
    5.5426    3.2001    0.0000 C   0  0  0  0  0  0  0  0  0  0  0  0
    5.5426    4.8000    0.0000 H   0  0  0  0  0  0  0  0  0  0  0  0
    6.9281    2.4000    0.0000 C   0  0  0  0  0  0  0  0  0  0  0  0
    8.3138    3.2001    0.0000 H   0  0  0  0  0  0  0  0  0  0  0  0
    6.9281    0.8000    0.0000 C   0  0  0  0  0  0  0  0  0  0  0  0
    8.3138    0.0000    0.0000 H   0  0  0  0  0  0  0  0  0  0  0  0
    5.5426    0.0000    0.0000 C   0  0  0  0  0  0  0  0  0  0  0  0
    5.5426   -1.6000    0.0000 H   0  0  0  0  0  0  0  0  0  0  0  0
    0.0000    0.0000    0.0000 C   0  0  0  0  0  0  0  0  0  0  0  0
    0.0000   -1.6000    0.0000 C   0  0  0  0  0  0  0  0  0  0  0  0
    1.3857   -2.4001    0.0000 H   0  0  0  0  0  0  0  0  0  0  0  0
   -1.3857   -2.4001    0.0000 C   0  0  0  0  0  0  0  0  0  0  0  0
   -1.3857   -4.0000    0.0000 H   0  0  0  0  0  0  0  0  0  0  0  0
   -2.7712   -1.6000    0.0000 C   0  0  0  0  0  0  0  0  0  0  0  0
   -4.1569   -2.4001    0.0000 H   0  0  0  0  0  0  0  0  0  0  0  0
   -2.7712    0.0000    0.0000 C   0  0  0  0  0  0  0  0  0  0  0  0
   -4.1569    0.8000    0.0000 H   0  0  0  0  0  0  0  0  0  0  0  0
   -1.3857    0.8000    0.0000 C   0  0  0  0  0  0  0  0  0  0  0  0
   -1.3857    2.4000    0.0000 H   0  0  0  0  0  0  0  0  0  0  0  0
  1  2  2  0  0  0  0
  2  3  1  0  0  0  0
  3  4  1  0  0  0  0
  4  5  1  0  0  0  0
  4  6  2  0  0  0  0
  6  7  1  0  0  0  0
  6  8  1  0  0  0  0
  8  9  1  0  0  0  0
  8 10  2  0  0  0  0
 10 11  1  0  0  0  0
 10 12  1  0  0  0  0
 12  3  2  0  0  0  0
 12 13  1  0  0  0  0
  1 14  1  0  0  0  0
 14 15  1  0  0  0  0
 15 16  1  0  0  0  0
 15 17  2  0  0  0  0
 17 18  1  0  0  0  0
 17 19  1  0  0  0  0
 19 20  1  0  0  0  0
 19 21  2  0  0  0  0
 21 22  1  0  0  0  0
 21 23  1  0  0  0  0
 23 14  2  0  0  0  0
 23 24  1  0  0  0  0
M  END
> <ChemID>
100742

> <source_casrn>
103-33-3|17082-12-1

> <CAS>
103-33-3

> <SMILES>
c1ccccc1N=Nc1ccccc1

> <NAME>
AZOBENZENE, DIAZENE, DIPHENYL-, (E)-

> <preferred_name>
Azobenzene

> <iupac>
diphenyldiazene

> <MPID>
19814|24275

> <dsstox_substance_id>
DTXSID8020123

> <Canonical_QSARr>
c1ccccc1N=Nc1ccccc1

> <InChI_Code_QSARr>
InChI=1S/C12H10N2/c1-3-7-11(8-4-1)13-14-12-9-5-2-6-10-12/h1-10H/b14-13+

> <InChI Key_QSARr>
DMLAVOWQYNRWNQ-BUHFOSPRSA-N

> <Salt_Solvent>
?

> <BP>
293.0

$$$$
100746
  -INDIGO-08031720192D

 32 33  0  0  0  0  0  0  0  0999 V2000
    4.1570    0.8000    0.0000 C   0  0  0  0  0  0  0  0  0  0  0  0
    5.5426   -0.0000    0.0000 C   0  0  0  0  0  0  0  0  0  0  0  0
    5.5426   -1.6000    0.0000 H   0  0  0  0  0  0  0  0  0  0  0  0
    6.9282    0.8000    0.0000 C   0  0  0  0  0  0  0  0  0  0  0  0
    6.9282    2.4000    0.0000 H   0  0  0  0  0  0  0  0  0  0  0  0
    8.3138   -0.0000    0.0000 C   0  0  0  0  0  0  0  0  0  0  0  0
    8.3138   -1.6000    0.0000 C   0  0  0  0  0  0  0  0  0  0  0  0
    6.9282   -2.4000    0.0000 H   0  0  0  0  0  0  0  0  0  0  0  0
    9.6996   -2.4000    0.0000 C   0  0  0  0  0  0  0  0  0  0  0  0
    9.6996   -4.0000    0.0000 H   0  0  0  0  0  0  0  0  0  0  0  0
   11.0852   -1.6000    0.0000 C   0  0  0  0  0  0  0  0  0  0  0  0
   12.4708   -2.4000    0.0000 H   0  0  0  0  0  0  0  0  0  0  0  0
   11.0852   -0.0000    0.0000 C   0  0  0  0  0  0  0  0  0  0  0  0
   12.4708    0.8000    0.0000 H   0  0  0  0  0  0  0  0  0  0  0  0
    9.6996    0.8000    0.0000 C   0  0  0  0  0  0  0  0  0  0  0  0
    9.6994    2.4000    0.0000 H   0  0  0  0  0  0  0  0  0  0  0  0
    4.1570    2.4000    0.0000 O   0  0  0  0  0  0  0  0  0  0  0  0
    2.7712   -0.0000    0.0000 O   0  0  0  0  0  0  0  0  0  0  0  0
    1.3856    0.8000    0.0000 C   0  0  0  0  0  0  0  0  0  0  0  0
    0.7734    2.2782    0.0000 H   0  0  0  0  0  0  0  0  0  0  0  0
    1.9979    2.2782    0.0000 H   0  0  0  0  0  0  0  0  0  0  0  0
    0.0001   -0.0000    0.0000 C   0  0  0  0  0  0  0  0  0  0  0  0
   -1.3858    0.8000    0.0000 C   0  0  0  0  0  0  0  0  0  0  0  0
   -1.3858    2.4000    0.0000 H   0  0  0  0  0  0  0  0  0  0  0  0
   -2.7713   -0.0000    0.0000 C   0  0  0  0  0  0  0  0  0  0  0  0
   -4.1569    0.8000    0.0000 H   0  0  0  0  0  0  0  0  0  0  0  0
   -2.7713   -1.6000    0.0000 C   0  0  0  0  0  0  0  0  0  0  0  0
   -4.1569   -2.4000    0.0000 H   0  0  0  0  0  0  0  0  0  0  0  0
   -1.3855   -2.4000    0.0000 C   0  0  0  0  0  0  0  0  0  0  0  0
   -1.3858   -4.0000    0.0000 H   0  0  0  0  0  0  0  0  0  0  0  0
    0.0001   -1.6000    0.0000 C   0  0  0  0  0  0  0  0  0  0  0  0
    1.3856   -2.4000    0.0000 H   0  0  0  0  0  0  0  0  0  0  0  0
  1  2  1  0  0  0  0
  2  3  1  0  0  0  0
  2  4  2  0  0  0  0
  4  5  1  0  0  0  0
  4  6  1  0  0  0  0
  6  7  1  0  0  0  0
  7  8  1  0  0  0  0
  7  9  2  0  0  0  0
  9 10  1  0  0  0  0
  9 11  1  0  0  0  0
 11 12  1  0  0  0  0
 11 13  2  0  0  0  0
 13 14  1  0  0  0  0
 13 15  1  0  0  0  0
 15  6  2  0  0  0  0
 15 16  1  0  0  0  0
  1 17  2  0  0  0  0
  1 18  1  0  0  0  0
 18 19  1  0  0  0  0
 19 20  1  0  0  0  0
 19 21  1  0  0  0  0
 19 22  1  0  0  0  0
 22 23  1  0  0  0  0
 23 24  1  0  0  0  0
 23 25  2  0  0  0  0
 25 26  1  0  0  0  0
 25 27  1  0  0  0  0
 27 28  1  0  0  0  0
 27 29  2  0  0  0  0
 29 30  1  0  0  0  0
 29 31  1  0  0  0  0
 31 22  2  0  0  0  0
 31 32  1  0  0  0  0
M  END
> <ChemID>
100746

> <source_casrn>
103-41-3

> <CAS>
103-41-3

> <SMILES>
O=C(C=Cc1ccccc1)OCc1ccccc1

> <NAME>
BENZYL CINNAMATE

> <preferred_name>
Benzyl cinnamate

> <iupac>
benzyl 3-phenylprop-2-enoate

> <MPID>
19818

> <dsstox_substance_id>
DTXSID3041663

> <Canonical_QSARr>
O=C(C=Cc1ccccc1)OCc1ccccc1

> <InChI_Code_QSARr>
InChI=1S/C16H14O2/c17-16(12-11-14-7-3-1-4-8-14)18-13-15-9-5-2-6-10-15/h1-12H,13H2/b12-11+

> <InChI Key_QSARr>
NGHOLYJTSCBCGC-VAWYXSNFSA-N

> <Salt_Solvent>
?

> <BP>
350.0

$$$$
100750
  -INDIGO-08031720192D

 25 25  0  0  0  0  0  0  0  0999 V2000
   -4.1569    0.8000    0.0000 C   0  0  0  0  0  0  0  0  0  0  0  0
   -3.5446    2.2782    0.0000 H   0  0  0  0  0  0  0  0  0  0  0  0
   -4.7692    2.2782    0.0000 H   0  0  0  0  0  0  0  0  0  0  0  0
   -2.7712   -0.0000    0.0000 C   0  0  0  0  0  0  0  0  0  0  0  0
   -2.7712   -1.6000    0.0000 H   0  0  0  0  0  0  0  0  0  0  0  0
   -1.3856    0.8000    0.0000 C   0  0  0  0  0  0  0  0  0  0  0  0
   -1.3856    2.4000    0.0000 H   0  0  0  0  0  0  0  0  0  0  0  0
    0.0001   -0.0000    0.0000 C   0  0  0  0  0  0  0  0  0  0  0  0
    1.3856    0.8000    0.0000 C   0  0  0  0  0  0  0  0  0  0  0  0
    1.3856    2.4000    0.0000 H   0  0  0  0  0  0  0  0  0  0  0  0
    2.7714   -0.0000    0.0000 C   0  0  0  0  0  0  0  0  0  0  0  0
    4.1569    0.8000    0.0000 H   0  0  0  0  0  0  0  0  0  0  0  0
    2.7714   -1.6000    0.0000 C   0  0  0  0  0  0  0  0  0  0  0  0
    4.1569   -2.4000    0.0000 H   0  0  0  0  0  0  0  0  0  0  0  0
    1.3856   -2.4000    0.0000 C   0  0  0  0  0  0  0  0  0  0  0  0
    1.3856   -4.0000    0.0000 H   0  0  0  0  0  0  0  0  0  0  0  0
    0.0001   -1.6000    0.0000 C   0  0  0  0  0  0  0  0  0  0  0  0
   -1.3856   -2.4000    0.0000 H   0  0  0  0  0  0  0  0  0  0  0  0
   -5.5427   -0.0000    0.0000 O   0  0  0  0  0  0  0  0  0  0  0  0
   -6.9282    0.8000    0.0000 C   0  0  0  0  0  0  0  0  0  0  0  0
   -6.9282    2.4000    0.0000 O   0  0  0  0  0  0  0  0  0  0  0  0
   -8.3139   -0.0000    0.0000 C   0  0  0  0  0  0  0  0  0  0  0  0
   -9.6995   -0.8000    0.0000 H   0  0  0  0  0  0  0  0  0  0  0  0
   -9.6995    0.8000    0.0000 H   0  0  0  0  0  0  0  0  0  0  0  0
   -8.3139   -1.6000    0.0000 H   0  0  0  0  0  0  0  0  0  0  0  0
  1  2  1  0  0  0  0
  1  3  1  0  0  0  0
  1  4  1  0  0  0  0
  4  5  1  0  0  0  0
  4  6  2  0  0  0  0
  6  7  1  0  0  0  0
  6  8  1  0  0  0  0
  8  9  1  0  0  0  0
  9 10  1  0  0  0  0
  9 11  2  0  0  0  0
 11 12  1  0  0  0  0
 11 13  1  0  0  0  0
 13 14  1  0  0  0  0
 13 15  2  0  0  0  0
 15 16  1  0  0  0  0
 15 17  1  0  0  0  0
 17  8  2  0  0  0  0
 17 18  1  0  0  0  0
  1 19  1  0  0  0  0
 19 20  1  0  0  0  0
 20 21  2  0  0  0  0
 20 22  1  0  0  0  0
 22 23  1  0  0  0  0
 22 24  1  0  0  0  0
 22 25  1  0  0  0  0
M  END
> <ChemID>
100750

> <source_casrn>
103-54-8

> <CAS>
103-54-8

> <SMILES>
CC(=O)OCC=Cc1ccccc1

> <NAME>
Acetic acid, cinnamyl ester

> <preferred_name>
3-Phenylprop-2-en-1-yl acetate

> <iupac>
3-phenylprop-2-en-1-yl acetate

> <MPID>
19822

> <dsstox_substance_id>
DTXSID2044765

> <Canonical_QSARr>
CC(=O)OCC=Cc1ccccc1

> <InChI_Code_QSARr>
InChI=1S/C11H12O2/c1-10(12)13-9-5-8-11-6-3-2-4-7-11/h2-8H,9H2,1H3/b8-5+

> <InChI Key_QSARr>
WJSDHUCWMSHDCR-VMPITWQZSA-N

> <Salt_Solvent>
?

> <BP>
265.0

$$$$
100754
  -INDIGO-08031720192D

 20 20  0  0  0  0  0  0  0  0999 V2000
   -0.8000    1.3856    0.0000 N   0  0  0  0  0  0  0  0  0  0  0  0
   -0.0001    2.7713    0.0000 H   0  0  0  0  0  0  0  0  0  0  0  0
   -2.4000    1.3856    0.0000 C   0  0  0  0  0  0  0  0  0  0  0  0
   -3.2000    2.7713    0.0000 C   0  0  0  0  0  0  0  0  0  0  0  0
   -2.4000    4.1569    0.0000 H   0  0  0  0  0  0  0  0  0  0  0  0
   -4.8001    2.7713    0.0000 C   0  0  0  0  0  0  0  0  0  0  0  0
   -5.6000    4.1569    0.0000 H   0  0  0  0  0  0  0  0  0  0  0  0
   -5.6000    1.3856    0.0000 C   0  0  0  0  0  0  0  0  0  0  0  0
   -7.2000    1.3856    0.0000 H   0  0  0  0  0  0  0  0  0  0  0  0
   -4.8001   -0.0000    0.0000 C   0  0  0  0  0  0  0  0  0  0  0  0
   -5.6000   -1.3856    0.0000 H   0  0  0  0  0  0  0  0  0  0  0  0
   -3.2000   -0.0000    0.0000 C   0  0  0  0  0  0  0  0  0  0  0  0
   -2.4000   -1.3856    0.0000 H   0  0  0  0  0  0  0  0  0  0  0  0
   -0.0001   -0.0000    0.0000 C   0  0  0  0  0  0  0  0  0  0  0  0
   -0.2089   -1.5863    0.0000 H   0  0  0  0  0  0  0  0  0  0  0  0
   -1.2693   -0.9740    0.0000 H   0  0  0  0  0  0  0  0  0  0  0  0
    1.6000   -0.0000    0.0000 C   0  0  0  0  0  0  0  0  0  0  0  0
    3.2000   -0.0000    0.0000 H   0  0  0  0  0  0  0  0  0  0  0  0
    2.4000   -1.3856    0.0000 H   0  0  0  0  0  0  0  0  0  0  0  0
    2.4000    1.3856    0.0000 H   0  0  0  0  0  0  0  0  0  0  0  0
  1  2  1  0  0  0  0
  1  3  1  0  0  0  0
  3  4  1  0  0  0  0
  4  5  1  0  0  0  0
  4  6  2  0  0  0  0
  6  7  1  0  0  0  0
  6  8  1  0  0  0  0
  8  9  1  0  0  0  0
  8 10  2  0  0  0  0
 10 11  1  0  0  0  0
 10 12  1  0  0  0  0
 12  3  2  0  0  0  0
 12 13  1  0  0  0  0
  1 14  1  0  0  0  0
 14 15  1  0  0  0  0
 14 16  1  0  0  0  0
 14 17  1  0  0  0  0
 17 18  1  0  0  0  0
 17 19  1  0  0  0  0
 17 20  1  0  0  0  0
M  END
> <ChemID>
100754

> <source_casrn>
103-69-5

> <CAS>
103-69-5

> <SMILES>
CCNc1ccccc1

> <NAME>
N-ETHYLANILINE

> <preferred_name>
N-Ethylaniline

> <iupac>
N-ethylaniline

> <MPID>
19826

> <dsstox_substance_id>
DTXSID1025271

> <Canonical_QSARr>
CCNc1ccccc1

> <InChI_Code_QSARr>
InChI=1S/C8H11N/c1-2-9-8-6-4-3-5-7-8/h3-7,9H,2H2,1H3

> <InChI Key_QSARr>
OJGMBLNIHDZDGS-UHFFFAOYSA-N

> <Salt_Solvent>
?

> <BP>
203.0

$$$$
100759
  -INDIGO-08031720192D

 23 23  0  0  0  0  0  0  0  0999 V2000
    2.7713   -1.6000    0.0000 O   0  0  0  0  0  0  0  0  0  0  0  0
    4.1569   -2.4000    0.0000 H   0  0  0  0  0  0  0  0  0  0  0  0
    2.7713   -0.0000    0.0000 C   0  0  0  0  0  0  0  0  0  0  0  0
    3.7453    1.2694    0.0000 H   0  0  0  0  0  0  0  0  0  0  0  0
    4.3576    0.2088    0.0000 H   0  0  0  0  0  0  0  0  0  0  0  0
    1.3857    0.8000    0.0000 C   0  0  0  0  0  0  0  0  0  0  0  0
    1.9980    2.2782    0.0000 H   0  0  0  0  0  0  0  0  0  0  0  0
    0.7734    2.2782    0.0000 H   0  0  0  0  0  0  0  0  0  0  0  0
    0.0001   -0.0000    0.0000 N   0  0  0  0  0  0  0  0  0  0  0  0
    0.0001   -1.6000    0.0000 C   0  0  0  0  0  0  0  0  0  0  0  0
    1.5757   -1.3221    0.0000 H   0  0  0  0  0  0  0  0  0  0  0  0
    0.5473   -3.1035    0.0000 H   0  0  0  0  0  0  0  0  0  0  0  0
   -1.3857   -2.4000    0.0000 C   0  0  0  0  0  0  0  0  0  0  0  0
   -0.3572   -3.6257    0.0000 H   0  0  0  0  0  0  0  0  0  0  0  0
   -2.4141   -3.6257    0.0000 H   0  0  0  0  0  0  0  0  0  0  0  0
   -2.7713   -1.6000    0.0000 N   0  0  0  0  0  0  0  0  0  0  0  0
   -4.1569   -2.4000    0.0000 H   0  0  0  0  0  0  0  0  0  0  0  0
   -2.7713   -0.0000    0.0000 C   0  0  0  0  0  0  0  0  0  0  0  0
   -4.3470   -0.2778    0.0000 H   0  0  0  0  0  0  0  0  0  0  0  0
   -3.3185    1.5035    0.0000 H   0  0  0  0  0  0  0  0  0  0  0  0
   -1.3857    0.8000    0.0000 C   0  0  0  0  0  0  0  0  0  0  0  0
   -2.4141    2.0257    0.0000 H   0  0  0  0  0  0  0  0  0  0  0  0
   -0.3572    2.0257    0.0000 H   0  0  0  0  0  0  0  0  0  0  0  0
  1  2  1  0  0  0  0
  1  3  1  0  0  0  0
  3  4  1  0  0  0  0
  3  5  1  0  0  0  0
  3  6  1  0  0  0  0
  6  7  1  0  0  0  0
  6  8  1  0  0  0  0
  6  9  1  0  0  0  0
  9 10  1  0  0  0  0
 10 11  1  0  0  0  0
 10 12  1  0  0  0  0
 10 13  1  0  0  0  0
 13 14  1  0  0  0  0
 13 15  1  0  0  0  0
 13 16  1  0  0  0  0
 16 17  1  0  0  0  0
 16 18  1  0  0  0  0
 18 19  1  0  0  0  0
 18 20  1  0  0  0  0
 18 21  1  0  0  0  0
 21  9  1  0  0  0  0
 21 22  1  0  0  0  0
 21 23  1  0  0  0  0
M  END
> <ChemID>
100759

> <source_casrn>
103-76-4

> <CAS>
103-76-4

> <SMILES>
OCCN1CCNCC1

> <NAME>
1-Piperazineethanol

> <preferred_name>
1-Piperazineethanol

> <iupac>
2-(piperazin-1-yl)ethanol

> <MPID>
19830

> <dsstox_substance_id>
DTXSID3021853

> <Canonical_QSARr>
OCCN1CCNCC1

> <InChI_Code_QSARr>
InChI=1S/C6H14N2O/c9-6-5-8-3-1-7-2-4-8/h7,9H,1-6H2

> <InChI Key_QSARr>
WFCSWCVEJLETKA-UHFFFAOYSA-N

> <Salt_Solvent>
?

> <BP>
246.0

$$$$
100763
  -INDIGO-08031720192D

 19 19  0  0  0  0  0  0  0  0999 V2000
   -0.8000    1.3856    0.0000 C   0  0  0  0  0  0  0  0  0  0  0  0
    0.0000    2.7713    0.0000 H   0  0  0  0  0  0  0  0  0  0  0  0
   -2.4001    1.3856    0.0000 C   0  0  0  0  0  0  0  0  0  0  0  0
   -3.2000    2.7713    0.0000 H   0  0  0  0  0  0  0  0  0  0  0  0
   -3.2000    0.0000    0.0000 C   0  0  0  0  0  0  0  0  0  0  0  0
   -4.8000    0.0000    0.0000 H   0  0  0  0  0  0  0  0  0  0  0  0
   -2.4001   -1.3856    0.0000 C   0  0  0  0  0  0  0  0  0  0  0  0
   -3.2000   -2.7713    0.0000 H   0  0  0  0  0  0  0  0  0  0  0  0
   -0.8000   -1.3856    0.0000 C   0  0  0  0  0  0  0  0  0  0  0  0
    0.0000   -2.7713    0.0000 H   0  0  0  0  0  0  0  0  0  0  0  0
    0.0000   -0.0000    0.0000 C   0  0  0  0  0  0  0  0  0  0  0  0
    1.6000    0.0000    0.0000 N   0  0  0  0  0  0  0  0  0  0  0  0
    2.3999    1.3856    0.0000 H   0  0  0  0  0  0  0  0  0  0  0  0
    2.3999   -1.3856    0.0000 C   0  0  0  0  0  0  0  0  0  0  0  0
    4.0001   -1.3856    0.0000 C   0  0  0  0  0  0  0  0  0  0  0  0
    5.6000   -1.3856    0.0000 H   0  0  0  0  0  0  0  0  0  0  0  0
    4.8000   -2.7713    0.0000 H   0  0  0  0  0  0  0  0  0  0  0  0
    4.8000    0.0000    0.0000 H   0  0  0  0  0  0  0  0  0  0  0  0
    1.6000   -2.7713    0.0000 O   0  0  0  0  0  0  0  0  0  0  0  0
  1  2  1  0  0  0  0
  1  3  1  0  0  0  0
  3  4  1  0  0  0  0
  3  5  2  0  0  0  0
  5  6  1  0  0  0  0
  5  7  1  0  0  0  0
  7  8  1  0  0  0  0
  7  9  2  0  0  0  0
  9 10  1  0  0  0  0
  9 11  1  0  0  0  0
 11  1  2  0  0  0  0
 11 12  1  0  0  0  0
 12 13  1  0  0  0  0
 12 14  1  0  0  0  0
 14 15  1  0  0  0  0
 15 16  1  0  0  0  0
 15 17  1  0  0  0  0
 15 18  1  0  0  0  0
 14 19  2  0  0  0  0
M  END
> <ChemID>
100763

> <source_casrn>
103-84-4

> <CAS>
103-84-4

> <SMILES>
CC(=O)Nc1ccccc1

> <NAME>
ACETANILIDE

> <preferred_name>
Acetanilide

> <iupac>
N-phenylacetamide

> <MPID>
19834

> <dsstox_substance_id>
DTXSID2022543

> <Canonical_QSARr>
CC(=O)Nc1ccccc1

> <InChI_Code_QSARr>
InChI=1S/C8H9NO/c1-7(10)9-8-5-3-2-4-6-8/h2-6H,1H3,(H,9,10)

> <InChI Key_QSARr>
FZERHIULMFGESH-UHFFFAOYSA-N

> <Salt_Solvent>
?

> <BP>
304.0

$$$$
100767
  -INDIGO-08031720192D

 26 26  0  0  0  0  0  0  0  0999 V2000
    6.9281    2.4000    0.0000 N   0  0  0  0  0  0  0  0  0  0  0  0
    8.3138    1.6000    0.0000 H   0  0  0  0  0  0  0  0  0  0  0  0
    6.9281    4.0000    0.0000 H   0  0  0  0  0  0  0  0  0  0  0  0
    5.5426    1.6000    0.0000 C   0  0  0  0  0  0  0  0  0  0  0  0
    4.1569    2.4000    0.0000 C   0  0  0  0  0  0  0  0  0  0  0  0
    4.1569    4.0000    0.0000 H   0  0  0  0  0  0  0  0  0  0  0  0
    2.7712    1.6000    0.0000 C   0  0  0  0  0  0  0  0  0  0  0  0
    1.3857    2.4000    0.0000 H   0  0  0  0  0  0  0  0  0  0  0  0
    2.7712    0.0000    0.0000 C   0  0  0  0  0  0  0  0  0  0  0  0
    1.3857   -0.8000    0.0000 C   0  0  0  0  0  0  0  0  0  0  0  0
    1.9979   -2.2782    0.0000 H   0  0  0  0  0  0  0  0  0  0  0  0
    0.7733   -2.2782    0.0000 H   0  0  0  0  0  0  0  0  0  0  0  0
    0.0000    0.0000    0.0000 C   0  0  0  0  0  0  0  0  0  0  0  0
   -0.6124    1.4782    0.0000 H   0  0  0  0  0  0  0  0  0  0  0  0
    0.6124    1.4782    0.0000 H   0  0  0  0  0  0  0  0  0  0  0  0
   -1.3857   -0.8000    0.0000 C   0  0  0  0  0  0  0  0  0  0  0  0
   -0.7733   -2.2782    0.0000 H   0  0  0  0  0  0  0  0  0  0  0  0
   -1.9979   -2.2782    0.0000 H   0  0  0  0  0  0  0  0  0  0  0  0
   -2.7712    0.0000    0.0000 C   0  0  0  0  0  0  0  0  0  0  0  0
   -4.1569    0.8000    0.0000 H   0  0  0  0  0  0  0  0  0  0  0  0
   -4.1569   -0.8000    0.0000 H   0  0  0  0  0  0  0  0  0  0  0  0
   -2.7712    1.6000    0.0000 H   0  0  0  0  0  0  0  0  0  0  0  0
    4.1569   -0.8000    0.0000 C   0  0  0  0  0  0  0  0  0  0  0  0
    4.1569   -2.4000    0.0000 H   0  0  0  0  0  0  0  0  0  0  0  0
    5.5426    0.0000    0.0000 C   0  0  0  0  0  0  0  0  0  0  0  0
    6.9281   -0.8000    0.0000 H   0  0  0  0  0  0  0  0  0  0  0  0
  1  2  1  0  0  0  0
  1  3  1  0  0  0  0
  1  4  1  0  0  0  0
  4  5  1  0  0  0  0
  5  6  1  0  0  0  0
  5  7  2  0  0  0  0
  7  8  1  0  0  0  0
  7  9  1  0  0  0  0
  9 10  1  0  0  0  0
 10 11  1  0  0  0  0
 10 12  1  0  0  0  0
 10 13  1  0  0  0  0
 13 14  1  0  0  0  0
 13 15  1  0  0  0  0
 13 16  1  0  0  0  0
 16 17  1  0  0  0  0
 16 18  1  0  0  0  0
 16 19  1  0  0  0  0
 19 20  1  0  0  0  0
 19 21  1  0  0  0  0
 19 22  1  0  0  0  0
  9 23  2  0  0  0  0
 23 24  1  0  0  0  0
 23 25  1  0  0  0  0
 25  4  2  0  0  0  0
 25 26  1  0  0  0  0
M  END
> <ChemID>
100767

> <source_casrn>
104-13-2

> <CAS>
104-13-2

> <SMILES>
CCCCc1ccc(N)cc1

> <NAME>
BENZENAMINE, 4-BUTYL-

> <preferred_name>
4-Butylaniline

> <iupac>
4-butylaniline

> <MPID>
19838

> <dsstox_substance_id>
DTXSID8021856

> <Canonical_QSARr>
CCCCc1ccc(N)cc1

> <InChI_Code_QSARr>
InChI=1S/C10H15N/c1-2-3-4-9-5-7-10(11)8-6-9/h5-8H,2-4,11H2,1H3

> <InChI Key_QSARr>
OGIQUQKNJJTLSZ-UHFFFAOYSA-N

> <Salt_Solvent>
?

> <BP>
261.0

$$$$
100771
  -INDIGO-08031720192D

 20 20  0  0  0  0  0  0  0  0999 V2000
    2.4000   -1.3856    0.0000 C   0  0  0  0  0  0  0  0  0  0  0  0
    3.2000   -2.7713    0.0000 N   0  0  0  0  0  0  0  0  0  0  0  0
    1.6000   -0.0000    0.0000 C   0  0  0  0  0  0  0  0  0  0  0  0
    1.8089    1.5863    0.0000 H   0  0  0  0  0  0  0  0  0  0  0  0
    2.8694    0.9740    0.0000 H   0  0  0  0  0  0  0  0  0  0  0  0
   -0.0001    0.0000    0.0000 C   0  0  0  0  0  0  0  0  0  0  0  0
   -0.8000    1.3856    0.0000 C   0  0  0  0  0  0  0  0  0  0  0  0
   -0.0001    2.7713    0.0000 H   0  0  0  0  0  0  0  0  0  0  0  0
   -2.4000    1.3856    0.0000 C   0  0  0  0  0  0  0  0  0  0  0  0
   -3.2000    2.7713    0.0000 H   0  0  0  0  0  0  0  0  0  0  0  0
   -3.2000    0.0000    0.0000 C   0  0  0  0  0  0  0  0  0  0  0  0
   -4.8001   -0.0000    0.0000 O   0  0  0  0  0  0  0  0  0  0  0  0
   -5.6000    1.3856    0.0000 C   0  0  0  0  0  0  0  0  0  0  0  0
   -7.2000    1.3856    0.0000 H   0  0  0  0  0  0  0  0  0  0  0  0
   -6.4000    2.7713    0.0000 H   0  0  0  0  0  0  0  0  0  0  0  0
   -6.4000   -0.0000    0.0000 H   0  0  0  0  0  0  0  0  0  0  0  0
   -2.4000   -1.3856    0.0000 C   0  0  0  0  0  0  0  0  0  0  0  0
   -3.2000   -2.7713    0.0000 H   0  0  0  0  0  0  0  0  0  0  0  0
   -0.8000   -1.3856    0.0000 C   0  0  0  0  0  0  0  0  0  0  0  0
   -0.0001   -2.7713    0.0000 H   0  0  0  0  0  0  0  0  0  0  0  0
  1  2  3  0  0  0  0
  1  3  1  0  0  0  0
  3  4  1  0  0  0  0
  3  5  1  0  0  0  0
  3  6  1  0  0  0  0
  6  7  1  0  0  0  0
  7  8  1  0  0  0  0
  7  9  2  0  0  0  0
  9 10  1  0  0  0  0
  9 11  1  0  0  0  0
 11 12  1  0  0  0  0
 12 13  1  0  0  0  0
 13 14  1  0  0  0  0
 13 15  1  0  0  0  0
 13 16  1  0  0  0  0
 11 17  2  0  0  0  0
 17 18  1  0  0  0  0
 17 19  1  0  0  0  0
 19  6  2  0  0  0  0
 19 20  1  0  0  0  0
M  END
> <ChemID>
100771

> <source_casrn>
104-47-2

> <CAS>
104-47-2

> <SMILES>
COc1ccc(CC#N)cc1

> <NAME>
Benzeneacetonitrile, 4-methoxy-

> <preferred_name>
4-Methoxyphenylacetonitrile

> <iupac>
(4-methoxyphenyl)acetonitrile

> <MPID>
19842

> <dsstox_substance_id>
DTXSID0051526

> <Canonical_QSARr>
COc1ccc(CC#N)cc1

> <InChI_Code_QSARr>
InChI=1S/C9H9NO/c1-11-9-4-2-8(3-5-9)6-7-10/h2-5H,6H2,1H3

> <InChI Key_QSARr>
PACGLQCRGWFBJH-UHFFFAOYSA-N

> <Salt_Solvent>
?

> <BP>
286.5

$$$$
100775
  -INDIGO-08031720192D

 21 21  0  0  0  0  0  0  0  0999 V2000
    3.2000   -0.0000    0.0000 Cl  0  0  0  0  0  0  0  0  0  0  0  0
    2.4000   -1.3857    0.0000 C   0  0  0  0  0  0  0  0  0  0  0  0
    4.0000   -1.3857    0.0000 H   0  0  0  0  0  0  0  0  0  0  0  0
    3.2000   -2.7713    0.0000 H   0  0  0  0  0  0  0  0  0  0  0  0
    0.7999   -1.3857    0.0000 C   0  0  0  0  0  0  0  0  0  0  0  0
    0.5911   -2.9720    0.0000 H   0  0  0  0  0  0  0  0  0  0  0  0
   -0.4693   -2.3596    0.0000 H   0  0  0  0  0  0  0  0  0  0  0  0
   -0.0000   -0.0000    0.0000 C   0  0  0  0  0  0  0  0  0  0  0  0
    0.2088    1.5864    0.0000 H   0  0  0  0  0  0  0  0  0  0  0  0
    1.2694    0.9740    0.0000 H   0  0  0  0  0  0  0  0  0  0  0  0
   -1.6000   -0.0000    0.0000 C   0  0  0  0  0  0  0  0  0  0  0  0
   -2.4000    1.3857    0.0000 C   0  0  0  0  0  0  0  0  0  0  0  0
   -1.6000    2.7713    0.0000 H   0  0  0  0  0  0  0  0  0  0  0  0
   -4.0001    1.3857    0.0000 C   0  0  0  0  0  0  0  0  0  0  0  0
   -4.8000    2.7713    0.0000 H   0  0  0  0  0  0  0  0  0  0  0  0
   -4.8000   -0.0000    0.0000 C   0  0  0  0  0  0  0  0  0  0  0  0
   -6.4000   -0.0000    0.0000 H   0  0  0  0  0  0  0  0  0  0  0  0
   -4.0001   -1.3857    0.0000 C   0  0  0  0  0  0  0  0  0  0  0  0
   -4.8000   -2.7713    0.0000 H   0  0  0  0  0  0  0  0  0  0  0  0
   -2.4000   -1.3857    0.0000 C   0  0  0  0  0  0  0  0  0  0  0  0
   -1.6000   -2.7713    0.0000 H   0  0  0  0  0  0  0  0  0  0  0  0
  1  2  1  0  0  0  0
  2  3  1  0  0  0  0
  2  4  1  0  0  0  0
  2  5  1  0  0  0  0
  5  6  1  0  0  0  0
  5  7  1  0  0  0  0
  5  8  1  0  0  0  0
  8  9  1  0  0  0  0
  8 10  1  0  0  0  0
  8 11  1  0  0  0  0
 11 12  1  0  0  0  0
 12 13  1  0  0  0  0
 12 14  2  0  0  0  0
 14 15  1  0  0  0  0
 14 16  1  0  0  0  0
 16 17  1  0  0  0  0
 16 18  2  0  0  0  0
 18 19  1  0  0  0  0
 18 20  1  0  0  0  0
 20 11  2  0  0  0  0
 20 21  1  0  0  0  0
M  END
> <ChemID>
100775

> <source_casrn>
104-52-9

> <CAS>
104-52-9

> <SMILES>
ClCCCc1ccccc1

> <NAME>
3-PHENYL-1-CHLOROPROPANE

> <preferred_name>
(3-Chloropropyl)benzene

> <iupac>
3-chloropropylbenzene

> <MPID>
19846

> <dsstox_substance_id>
DTXSID10146206

> <Canonical_QSARr>
ClCCCc1ccccc1

> <InChI_Code_QSARr>
InChI=1S/C9H11Cl/c10-8-4-7-9-5-2-1-3-6-9/h1-3,5-6H,4,7-8H2

> <InChI Key_QSARr>
XZBXAYCCBFTQHH-UHFFFAOYSA-N

> <Salt_Solvent>
?

> <BP>
219.5

$$$$
100779
  -INDIGO-08031720192D

 18 18  0  0  0  0  0  0  0  0999 V2000
   -0.0001   -0.0000    0.0000 C   0  0  0  0  0  0  0  0  0  0  0  0
   -0.0001   -1.6000    0.0000 C   0  0  0  0  0  0  0  0  0  0  0  0
    1.3857   -2.4000    0.0000 H   0  0  0  0  0  0  0  0  0  0  0  0
   -1.3857   -2.4000    0.0000 C   0  0  0  0  0  0  0  0  0  0  0  0
   -1.3857   -4.0000    0.0000 H   0  0  0  0  0  0  0  0  0  0  0  0
   -2.7713   -1.6000    0.0000 C   0  0  0  0  0  0  0  0  0  0  0  0
   -4.1569   -2.4000    0.0000 H   0  0  0  0  0  0  0  0  0  0  0  0
   -2.7713   -0.0000    0.0000 C   0  0  0  0  0  0  0  0  0  0  0  0
   -4.1569    0.8000    0.0000 H   0  0  0  0  0  0  0  0  0  0  0  0
   -1.3857    0.8000    0.0000 C   0  0  0  0  0  0  0  0  0  0  0  0
   -1.3857    2.4000    0.0000 H   0  0  0  0  0  0  0  0  0  0  0  0
    1.3857    0.8000    0.0000 C   0  0  0  0  0  0  0  0  0  0  0  0
    1.9980    2.2782    0.0000 H   0  0  0  0  0  0  0  0  0  0  0  0
    0.7734    2.2782    0.0000 H   0  0  0  0  0  0  0  0  0  0  0  0
    2.7713   -0.0000    0.0000 O   0  0  0  0  0  0  0  0  0  0  0  0
    4.1569    0.8000    0.0000 C   0  0  0  0  0  0  0  0  0  0  0  0
    5.5426   -0.0000    0.0000 H   0  0  0  0  0  0  0  0  0  0  0  0
    4.1569    2.4000    0.0000 O   0  0  0  0  0  0  0  0  0  0  0  0
  1  2  1  0  0  0  0
  2  3  1  0  0  0  0
  2  4  2  0  0  0  0
  4  5  1  0  0  0  0
  4  6  1  0  0  0  0
  6  7  1  0  0  0  0
  6  8  2  0  0  0  0
  8  9  1  0  0  0  0
  8 10  1  0  0  0  0
 10  1  2  0  0  0  0
 10 11  1  0  0  0  0
  1 12  1  0  0  0  0
 12 13  1  0  0  0  0
 12 14  1  0  0  0  0
 12 15  1  0  0  0  0
 15 16  1  0  0  0  0
 16 17  1  0  0  0  0
 16 18  2  0  0  0  0
M  END
> <ChemID>
100779

> <source_casrn>
104-57-4

> <CAS>
104-57-4

> <SMILES>
O=COCc1ccccc1

> <NAME>
Formic acid, phenylmethyl ester

> <preferred_name>
Formic acid, phenylmethyl ester

> <iupac>
Phenylmethyl formate

> <MPID>
19850

> <dsstox_substance_id>
DTXSID5059298

> <Canonical_QSARr>
O=COCc1ccccc1

> <InChI_Code_QSARr>
InChI=1S/C8H8O2/c9-7-10-6-8-4-2-1-3-5-8/h1-5,7H,6H2

> <InChI Key_QSARr>
UYWQUFXKFGHYNT-UHFFFAOYSA-N

> <Salt_Solvent>
?

> <BP>
203.0

$$$$
100783
  -INDIGO-08031720192D

 42 42  0  0  0  0  0  0  0  0999 V2000
   -6.9283   -0.8000    0.0000 C   0  0  0  0  0  0  0  0  0  0  0  0
   -6.9283   -2.4000    0.0000 C   0  0  0  0  0  0  0  0  0  0  0  0
   -5.5426   -3.2000    0.0000 H   0  0  0  0  0  0  0  0  0  0  0  0
   -8.3139   -3.2000    0.0000 C   0  0  0  0  0  0  0  0  0  0  0  0
   -8.3139   -4.8000    0.0000 H   0  0  0  0  0  0  0  0  0  0  0  0
   -9.6995   -2.4000    0.0000 C   0  0  0  0  0  0  0  0  0  0  0  0
  -11.0851   -3.2000    0.0000 H   0  0  0  0  0  0  0  0  0  0  0  0
   -9.6995   -0.8000    0.0000 C   0  0  0  0  0  0  0  0  0  0  0  0
  -11.0851   -0.0000    0.0000 H   0  0  0  0  0  0  0  0  0  0  0  0
   -8.3139   -0.0000    0.0000 C   0  0  0  0  0  0  0  0  0  0  0  0
   -8.3139    1.6000    0.0000 H   0  0  0  0  0  0  0  0  0  0  0  0
   -5.5426   -0.0000    0.0000 C   0  0  0  0  0  0  0  0  0  0  0  0
   -4.9302    1.4782    0.0000 H   0  0  0  0  0  0  0  0  0  0  0  0
   -6.1548    1.4782    0.0000 H   0  0  0  0  0  0  0  0  0  0  0  0
   -4.1570   -0.8000    0.0000 C   0  0  0  0  0  0  0  0  0  0  0  0
   -4.7692   -2.2782    0.0000 H   0  0  0  0  0  0  0  0  0  0  0  0
   -3.5446   -2.2782    0.0000 H   0  0  0  0  0  0  0  0  0  0  0  0
   -2.7714   -0.0000    0.0000 C   0  0  0  0  0  0  0  0  0  0  0  0
   -2.1590    1.4782    0.0000 H   0  0  0  0  0  0  0  0  0  0  0  0
   -3.3836    1.4782    0.0000 H   0  0  0  0  0  0  0  0  0  0  0  0
   -1.3858   -0.8000    0.0000 C   0  0  0  0  0  0  0  0  0  0  0  0
   -1.9979   -2.2782    0.0000 H   0  0  0  0  0  0  0  0  0  0  0  0
   -0.7733   -2.2782    0.0000 H   0  0  0  0  0  0  0  0  0  0  0  0
    0.0001   -0.0000    0.0000 C   0  0  0  0  0  0  0  0  0  0  0  0
    0.6123    1.4782    0.0000 H   0  0  0  0  0  0  0  0  0  0  0  0
   -0.6123    1.4782    0.0000 H   0  0  0  0  0  0  0  0  0  0  0  0
    1.3857   -0.8000    0.0000 C   0  0  0  0  0  0  0  0  0  0  0  0
    0.7733   -2.2782    0.0000 H   0  0  0  0  0  0  0  0  0  0  0  0
    1.9979   -2.2782    0.0000 H   0  0  0  0  0  0  0  0  0  0  0  0
    2.7714   -0.0000    0.0000 C   0  0  0  0  0  0  0  0  0  0  0  0
    3.3835    1.4782    0.0000 H   0  0  0  0  0  0  0  0  0  0  0  0
    2.1589    1.4782    0.0000 H   0  0  0  0  0  0  0  0  0  0  0  0
    4.1570   -0.8000    0.0000 C   0  0  0  0  0  0  0  0  0  0  0  0
    3.5445   -2.2782    0.0000 H   0  0  0  0  0  0  0  0  0  0  0  0
    4.7691   -2.2782    0.0000 H   0  0  0  0  0  0  0  0  0  0  0  0
    5.5426   -0.0000    0.0000 C   0  0  0  0  0  0  0  0  0  0  0  0
    6.1548    1.4782    0.0000 H   0  0  0  0  0  0  0  0  0  0  0  0
    4.9302    1.4782    0.0000 H   0  0  0  0  0  0  0  0  0  0  0  0
    6.9282   -0.8000    0.0000 C   0  0  0  0  0  0  0  0  0  0  0  0
    8.3138   -1.6000    0.0000 H   0  0  0  0  0  0  0  0  0  0  0  0
    8.3138   -0.0000    0.0000 H   0  0  0  0  0  0  0  0  0  0  0  0
    6.9282   -2.4000    0.0000 H   0  0  0  0  0  0  0  0  0  0  0  0
  1  2  1  0  0  0  0
  2  3  1  0  0  0  0
  2  4  2  0  0  0  0
  4  5  1  0  0  0  0
  4  6  1  0  0  0  0
  6  7  1  0  0  0  0
  6  8  2  0  0  0  0
  8  9  1  0  0  0  0
  8 10  1  0  0  0  0
 10  1  2  0  0  0  0
 10 11  1  0  0  0  0
  1 12  1  0  0  0  0
 12 13  1  0  0  0  0
 12 14  1  0  0  0  0
 12 15  1  0  0  0  0
 15 16  1  0  0  0  0
 15 17  1  0  0  0  0
 15 18  1  0  0  0  0
 18 19  1  0  0  0  0
 18 20  1  0  0  0  0
 18 21  1  0  0  0  0
 21 22  1  0  0  0  0
 21 23  1  0  0  0  0
 21 24  1  0  0  0  0
 24 25  1  0  0  0  0
 24 26  1  0  0  0  0
 24 27  1  0  0  0  0
 27 28  1  0  0  0  0
 27 29  1  0  0  0  0
 27 30  1  0  0  0  0
 30 31  1  0  0  0  0
 30 32  1  0  0  0  0
 30 33  1  0  0  0  0
 33 34  1  0  0  0  0
 33 35  1  0  0  0  0
 33 36  1  0  0  0  0
 36 37  1  0  0  0  0
 36 38  1  0  0  0  0
 36 39  1  0  0  0  0
 39 40  1  0  0  0  0
 39 41  1  0  0  0  0
 39 42  1  0  0  0  0
M  END
> <ChemID>
100783

> <source_casrn>
104-72-3

> <CAS>
104-72-3

> <SMILES>
CCCCCCCCCCc1ccccc1

> <NAME>
1-PHENYLDECANE

> <preferred_name>
Decylbenzene

> <iupac>
decylbenzene

> <MPID>
19854

> <dsstox_substance_id>
DTXSID5051529

> <Canonical_QSARr>
CCCCCCCCCCc1ccccc1

> <InChI_Code_QSARr>
InChI=1S/C16H26/c1-2-3-4-5-6-7-8-10-13-16-14-11-9-12-15-16/h9,11-12,14-15H,2-8,10,13H2,1H3

> <InChI Key_QSARr>
UZILCZKGXMQEQR-UHFFFAOYSA-N

> <Salt_Solvent>
?

> <BP>
298.0

$$$$
100787
  -INDIGO-08031720192D

 21 21  0  0  0  0  0  0  0  0999 V2000
    1.6000   -0.0000    0.0000 O   0  0  0  0  0  0  0  0  0  0  0  0
    2.0945   -1.5217    0.0000 C   0  0  0  0  0  0  0  0  0  0  0  0
    2.8944   -2.9074    0.0000 H   0  0  0  0  0  0  0  0  0  0  0  0
    3.5561   -0.8709    0.0000 C   0  0  0  0  0  0  0  0  0  0  0  0
    4.3196    0.5352    0.0000 H   0  0  0  0  0  0  0  0  0  0  0  0
    3.1017    0.6632    0.0000 H   0  0  0  0  0  0  0  0  0  0  0  0
    4.8505   -1.8113    0.0000 O   0  0  0  0  0  0  0  0  0  0  0  0
    6.3122   -1.1605    0.0000 H   0  0  0  0  0  0  0  0  0  0  0  0
    0.8001   -2.4621    0.0000 C   0  0  0  0  0  0  0  0  0  0  0  0
    1.8705   -3.6512    0.0000 H   0  0  0  0  0  0  0  0  0  0  0  0
   -0.2706   -3.6512    0.0000 H   0  0  0  0  0  0  0  0  0  0  0  0
   -0.4945   -1.5217    0.0000 C   0  0  0  0  0  0  0  0  0  0  0  0
   -1.2945   -2.9074    0.0000 H   0  0  0  0  0  0  0  0  0  0  0  0
   -1.9561   -0.8709    0.0000 H   0  0  0  0  0  0  0  0  0  0  0  0
   -0.0000   -0.0000    0.0000 C   0  0  0  0  0  0  0  0  0  0  0  0
    0.1673    1.5912    0.0000 H   0  0  0  0  0  0  0  0  0  0  0  0
   -1.4836    0.5994    0.0000 C   0  0  0  0  0  0  0  0  0  0  0  0
   -2.2956    1.9780    0.0000 H   0  0  0  0  0  0  0  0  0  0  0  0
   -1.0829    2.1484    0.0000 H   0  0  0  0  0  0  0  0  0  0  0  0
   -2.8961   -0.1518    0.0000 O   0  0  0  0  0  0  0  0  0  0  0  0
   -4.2531    0.6961    0.0000 H   0  0  0  0  0  0  0  0  0  0  0  0
  1  2  1  0  0  0  0
  2  3  1  0  0  0  0
  2  4  1  0  0  0  0
  4  5  1  0  0  0  0
  4  6  1  0  0  0  0
  4  7  1  0  0  0  0
  7  8  1  0  0  0  0
  2  9  1  0  0  0  0
  9 10  1  0  0  0  0
  9 11  1  0  0  0  0
  9 12  1  0  0  0  0
 12 13  1  0  0  0  0
 12 14  1  0  0  0  0
 12 15  1  0  0  0  0
 15  1  1  0  0  0  0
 15 16  1  0  0  0  0
 15 17  1  0  0  0  0
 17 18  1  0  0  0  0
 17 19  1  0  0  0  0
 17 20  1  0  0  0  0
 20 21  1  0  0  0  0
M  END
> <ChemID>
100787

> <source_casrn>
104-80-3

> <CAS>
NOCAS_870446

> <SMILES>
OCC1CCC(CO)O1

> <NAME>
2,5-Tetrahydrofurandimethanol

> <preferred_name>


> <iupac>


> <MPID>
19858

> <dsstox_substance_id>
DTXSID40870446

> <Canonical_QSARr>
OCC1CCC(CO)O1

> <InChI_Code_QSARr>
InChI=1S/C6H12O3/c7-3-5-1-2-6(4-8)9-5/h5-8H,1-4H2

> <InChI Key_QSARr>
YCZZQSFWHFBKMU-UHFFFAOYSA-N

> <Salt_Solvent>
?

> <BP>
265.0

$$$$
100791
  -INDIGO-08031720192D

 20 20  0  0  0  0  0  0  0  0999 V2000
    4.8000   -0.0000    0.0000 C   0  0  0  0  0  0  0  0  0  0  0  0
    6.4000   -0.0000    0.0000 H   0  0  0  0  0  0  0  0  0  0  0  0
    5.6000   -1.3856    0.0000 H   0  0  0  0  0  0  0  0  0  0  0  0
    5.6000    1.3856    0.0000 H   0  0  0  0  0  0  0  0  0  0  0  0
    3.1999   -0.0000    0.0000 C   0  0  0  0  0  0  0  0  0  0  0  0
    2.4000    1.3856    0.0000 C   0  0  0  0  0  0  0  0  0  0  0  0
    3.1999    2.7713    0.0000 H   0  0  0  0  0  0  0  0  0  0  0  0
    0.8000    1.3856    0.0000 C   0  0  0  0  0  0  0  0  0  0  0  0
    0.0000    2.7713    0.0000 H   0  0  0  0  0  0  0  0  0  0  0  0
    0.0000   -0.0000    0.0000 C   0  0  0  0  0  0  0  0  0  0  0  0
   -1.6001   -0.0000    0.0000 C   0  0  0  0  0  0  0  0  0  0  0  0
   -1.8089   -1.5863    0.0000 H   0  0  0  0  0  0  0  0  0  0  0  0
   -2.8693   -0.9740    0.0000 H   0  0  0  0  0  0  0  0  0  0  0  0
   -2.4000    1.3856    0.0000 N   0  0  0  0  0  0  0  0  0  0  0  0
   -4.0000    1.3856    0.0000 H   0  0  0  0  0  0  0  0  0  0  0  0
   -1.6001    2.7713    0.0000 H   0  0  0  0  0  0  0  0  0  0  0  0
    0.8000   -1.3856    0.0000 C   0  0  0  0  0  0  0  0  0  0  0  0
    0.0000   -2.7713    0.0000 H   0  0  0  0  0  0  0  0  0  0  0  0
    2.4000   -1.3856    0.0000 C   0  0  0  0  0  0  0  0  0  0  0  0
    3.1999   -2.7713    0.0000 H   0  0  0  0  0  0  0  0  0  0  0  0
  1  2  1  0  0  0  0
  1  3  1  0  0  0  0
  1  4  1  0  0  0  0
  1  5  1  0  0  0  0
  5  6  1  0  0  0  0
  6  7  1  0  0  0  0
  6  8  2  0  0  0  0
  8  9  1  0  0  0  0
  8 10  1  0  0  0  0
 10 11  1  0  0  0  0
 11 12  1  0  0  0  0
 11 13  1  0  0  0  0
 11 14  1  0  0  0  0
 14 15  1  0  0  0  0
 14 16  1  0  0  0  0
 10 17  2  0  0  0  0
 17 18  1  0  0  0  0
 17 19  1  0  0  0  0
 19  5  2  0  0  0  0
 19 20  1  0  0  0  0
M  END
> <ChemID>
100791

> <source_casrn>
104-84-7

> <CAS>
104-84-7

> <SMILES>
Cc1ccc(CN)cc1

> <NAME>
BENZENEMETHANAMINE, 4-METHYL-

> <preferred_name>
Benzenemethanamine, 4-methyl-

> <iupac>
(4-methylphenyl)methanamine

> <MPID>
19862

> <dsstox_substance_id>
DTXSID2059306

> <Canonical_QSARr>
Cc1ccc(CN)cc1

> <InChI_Code_QSARr>
InChI=1S/C8H11N/c1-7-2-4-8(6-9)5-3-7/h2-5H,6,9H2,1H3

> <InChI Key_QSARr>
HMTSWYPNXFHGEP-UHFFFAOYSA-N

> <Salt_Solvent>
?

> <BP>
195.0

$$$$
100795
  -INDIGO-08031720192D

 20 20  0  0  0  0  0  0  0  0999 V2000
    4.0000    1.3856    0.0000 N   0  0  0  0  0  0  0  0  0  0  0  0
    4.7999   -0.0000    0.0000 C   0  0  0  0  0  0  0  0  0  0  0  0
    6.4001   -0.0000    0.0000 C   0  0  0  0  0  0  0  0  0  0  0  0
    8.0000   -0.0000    0.0000 H   0  0  0  0  0  0  0  0  0  0  0  0
    7.2000    1.3856    0.0000 H   0  0  0  0  0  0  0  0  0  0  0  0
    7.2000   -1.3856    0.0000 H   0  0  0  0  0  0  0  0  0  0  0  0
    4.0000   -1.3856    0.0000 C   0  0  0  0  0  0  0  0  0  0  0  0
    4.7999   -2.7713    0.0000 H   0  0  0  0  0  0  0  0  0  0  0  0
    2.4000   -1.3856    0.0000 C   0  0  0  0  0  0  0  0  0  0  0  0
    1.6000   -2.7713    0.0000 H   0  0  0  0  0  0  0  0  0  0  0  0
    1.6000    0.0000    0.0000 C   0  0  0  0  0  0  0  0  0  0  0  0
   -0.0001    0.0000    0.0000 C   0  0  0  0  0  0  0  0  0  0  0  0
   -1.2693   -0.9740    0.0000 H   0  0  0  0  0  0  0  0  0  0  0  0
   -0.2089   -1.5863    0.0000 H   0  0  0  0  0  0  0  0  0  0  0  0
   -0.8000    1.3856    0.0000 C   0  0  0  0  0  0  0  0  0  0  0  0
   -2.4000    1.3856    0.0000 H   0  0  0  0  0  0  0  0  0  0  0  0
   -1.6000    2.7713    0.0000 H   0  0  0  0  0  0  0  0  0  0  0  0
   -1.6000    0.0000    0.0000 H   0  0  0  0  0  0  0  0  0  0  0  0
    2.4000    1.3856    0.0000 C   0  0  0  0  0  0  0  0  0  0  0  0
    1.6000    2.7713    0.0000 H   0  0  0  0  0  0  0  0  0  0  0  0
  1  2  1  0  0  0  0
  2  3  1  0  0  0  0
  3  4  1  0  0  0  0
  3  5  1  0  0  0  0
  3  6  1  0  0  0  0
  2  7  2  0  0  0  0
  7  8  1  0  0  0  0
  7  9  1  0  0  0  0
  9 10  1  0  0  0  0
  9 11  2  0  0  0  0
 11 12  1  0  0  0  0
 12 13  1  0  0  0  0
 12 14  1  0  0  0  0
 12 15  1  0  0  0  0
 15 16  1  0  0  0  0
 15 17  1  0  0  0  0
 15 18  1  0  0  0  0
 11 19  1  0  0  0  0
 19  1  2  0  0  0  0
 19 20  1  0  0  0  0
M  END
> <ChemID>
100795

> <source_casrn>
104-90-5

> <CAS>
104-90-5

> <SMILES>
Cc1ccc(CC)c[n]1

> <NAME>
5-ETHYL-2-METHYLPYRIDINE

> <preferred_name>
5-Ethyl-2-methylpyridine

> <iupac>
5-ethyl-2-methylpyridine

> <MPID>
19866

> <dsstox_substance_id>
DTXSID7021861

> <Canonical_QSARr>
Cc1ccc(CC)c[n]1

> <InChI_Code_QSARr>
InChI=1S/C8H11N/c1-3-8-5-4-7(2)9-6-8/h4-6H,3H2,1-2H3

> <InChI Key_QSARr>
NTSLROIKFLNUIJ-UHFFFAOYSA-N

> <Salt_Solvent>
?

> <BP>
178.3

$$$$
100799
  -INDIGO-08031720192D

 18 18  0  0  0  0  0  0  0  0999 V2000
    4.8000   -0.0000    0.0000 N   0  0  0  0  0  0  0  0  0  0  0  0
    5.6000   -1.3856    0.0000 H   0  0  0  0  0  0  0  0  0  0  0  0
    5.6000    1.3856    0.0000 H   0  0  0  0  0  0  0  0  0  0  0  0
    3.2000   -0.0000    0.0000 C   0  0  0  0  0  0  0  0  0  0  0  0
    2.4000    1.3856    0.0000 C   0  0  0  0  0  0  0  0  0  0  0  0
    3.2000    2.7713    0.0000 H   0  0  0  0  0  0  0  0  0  0  0  0
    0.8001    1.3856    0.0000 C   0  0  0  0  0  0  0  0  0  0  0  0
   -0.0000    2.7713    0.0000 H   0  0  0  0  0  0  0  0  0  0  0  0
   -0.0000   -0.0000    0.0000 C   0  0  0  0  0  0  0  0  0  0  0  0
   -1.6000   -0.0000    0.0000 S   0  0  0  0  0  0  0  0  0  0  0  0
   -2.4001    1.3856    0.0000 C   0  0  0  0  0  0  0  0  0  0  0  0
   -4.0000    1.3856    0.0000 H   0  0  0  0  0  0  0  0  0  0  0  0
   -3.2000    2.7713    0.0000 H   0  0  0  0  0  0  0  0  0  0  0  0
   -3.2000   -0.0000    0.0000 H   0  0  0  0  0  0  0  0  0  0  0  0
    0.8001   -1.3856    0.0000 C   0  0  0  0  0  0  0  0  0  0  0  0
   -0.0000   -2.7713    0.0000 H   0  0  0  0  0  0  0  0  0  0  0  0
    2.4000   -1.3856    0.0000 C   0  0  0  0  0  0  0  0  0  0  0  0
    3.2000   -2.7713    0.0000 H   0  0  0  0  0  0  0  0  0  0  0  0
  1  2  1  0  0  0  0
  1  3  1  0  0  0  0
  1  4  1  0  0  0  0
  4  5  1  0  0  0  0
  5  6  1  0  0  0  0
  5  7  2  0  0  0  0
  7  8  1  0  0  0  0
  7  9  1  0  0  0  0
  9 10  1  0  0  0  0
 10 11  1  0  0  0  0
 11 12  1  0  0  0  0
 11 13  1  0  0  0  0
 11 14  1  0  0  0  0
  9 15  2  0  0  0  0
 15 16  1  0  0  0  0
 15 17  1  0  0  0  0
 17  4  2  0  0  0  0
 17 18  1  0  0  0  0
M  END
> <ChemID>
100799

> <source_casrn>
104-96-1

> <CAS>
104-96-1

> <SMILES>
CSc1ccc(N)cc1

> <NAME>
Benzenamine, 4-(methylthio)-

> <preferred_name>
Benzenamine, 4-(methylthio)-

> <iupac>
4-methylsulfanylaniline

> <MPID>
19870

> <dsstox_substance_id>
DTXSID7059309

> <Canonical_QSARr>
CSc1ccc(N)cc1

> <InChI_Code_QSARr>
InChI=1S/C7H9NS/c1-9-7-4-2-6(8)3-5-7/h2-5H,8H2,1H3

> <InChI Key_QSARr>
YKFROQCFVXOUPW-UHFFFAOYSA-N

> <Salt_Solvent>
?

> <BP>
272.5

$$$$
100803
  -INDIGO-08031720192D

 21 20  0  0  0  0  0  0  0  0999 V2000
    1.3856   -0.8000    0.0000 C   0  0  0  0  0  0  0  0  0  0  0  0
    1.9979   -2.2782    0.0000 H   0  0  0  0  0  0  0  0  0  0  0  0
    0.7733   -2.2782    0.0000 H   0  0  0  0  0  0  0  0  0  0  0  0
   -0.0000    0.0000    0.0000 C   0  0  0  0  0  0  0  0  0  0  0  0
   -0.8000   -1.3857    0.0000 H   0  0  0  0  0  0  0  0  0  0  0  0
   -1.5034    0.5472    0.0000 C   0  0  0  0  0  0  0  0  0  0  0  0
   -1.1571    2.1093    0.0000 H   0  0  0  0  0  0  0  0  0  0  0  0
   -2.3632    1.8967    0.0000 H   0  0  0  0  0  0  0  0  0  0  0  0
   -2.7292   -0.4812    0.0000 C   0  0  0  0  0  0  0  0  0  0  0  0
   -3.0755   -2.0433    0.0000 H   0  0  0  0  0  0  0  0  0  0  0  0
   -1.8695   -1.8306    0.0000 H   0  0  0  0  0  0  0  0  0  0  0  0
   -4.2326    0.0660    0.0000 C   0  0  0  0  0  0  0  0  0  0  0  0
   -5.7362    0.6133    0.0000 H   0  0  0  0  0  0  0  0  0  0  0  0
   -5.4584   -0.9624    0.0000 H   0  0  0  0  0  0  0  0  0  0  0  0
   -4.5106    1.6417    0.0000 H   0  0  0  0  0  0  0  0  0  0  0  0
    0.8000    1.3856    0.0000 C   0  0  0  0  0  0  0  0  0  0  0  0
    1.6000    2.7713    0.0000 H   0  0  0  0  0  0  0  0  0  0  0  0
    2.4001    1.3856    0.0000 H   0  0  0  0  0  0  0  0  0  0  0  0
   -0.0000    2.7713    0.0000 H   0  0  0  0  0  0  0  0  0  0  0  0
    2.7713    0.0000    0.0000 O   0  0  0  0  0  0  0  0  0  0  0  0
    4.1569   -0.8000    0.0000 H   0  0  0  0  0  0  0  0  0  0  0  0
  1  2  1  0  0  0  0
  1  3  1  0  0  0  0
  1  4  1  0  0  0  0
  4  5  1  0  0  0  0
  4  6  1  0  0  0  0
  6  7  1  0  0  0  0
  6  8  1  0  0  0  0
  6  9  1  0  0  0  0
  9 10  1  0  0  0  0
  9 11  1  0  0  0  0
  9 12  1  0  0  0  0
 12 13  1  0  0  0  0
 12 14  1  0  0  0  0
 12 15  1  0  0  0  0
  4 16  1  0  0  0  0
 16 17  1  0  0  0  0
 16 18  1  0  0  0  0
 16 19  1  0  0  0  0
  1 20  1  0  0  0  0
 20 21  1  0  0  0  0
M  END
> <ChemID>
100803

> <source_casrn>
105-30-6

> <CAS>
105-30-6

> <SMILES>
CCCC(C)CO

> <NAME>
2-METHYL-1-PENTANOL

> <preferred_name>
2-Methyl-1-pentanol

> <iupac>
2-methylpentan-1-ol

> <MPID>
19874

> <dsstox_substance_id>
DTXSID9026714

> <Canonical_QSARr>
CCCC(C)CO

> <InChI_Code_QSARr>
InChI=1S/C6H14O/c1-3-4-6(2)5-7/h6-7H,3-5H2,1-2H3

> <InChI Key_QSARr>
PFNHSEQQEPMLNI-UHFFFAOYSA-N

> <Salt_Solvent>
?

> <BP>
149.0

$$$$
100807
  -INDIGO-08031720192D

 17 16  0  0  0  0  0  0  0  0999 V2000
   -1.3856    0.8000    0.0000 C   0  0  0  0  0  0  0  0  0  0  0  0
   -1.3856    2.4000    0.0000 O   0  0  0  0  0  0  0  0  0  0  0  0
   -2.7713    0.0000    0.0000 O   0  0  0  0  0  0  0  0  0  0  0  0
   -4.1570    0.8000    0.0000 C   0  0  0  0  0  0  0  0  0  0  0  0
   -4.7693    2.2782    0.0000 H   0  0  0  0  0  0  0  0  0  0  0  0
   -3.5447    2.2782    0.0000 H   0  0  0  0  0  0  0  0  0  0  0  0
   -5.5426    0.0000    0.0000 C   0  0  0  0  0  0  0  0  0  0  0  0
   -6.9282   -0.8000    0.0000 H   0  0  0  0  0  0  0  0  0  0  0  0
   -6.9282    0.8000    0.0000 H   0  0  0  0  0  0  0  0  0  0  0  0
   -5.5426   -1.6000    0.0000 H   0  0  0  0  0  0  0  0  0  0  0  0
    0.0000    0.0000    0.0000 C   0  0  0  0  0  0  0  0  0  0  0  0
    0.6123   -1.4782    0.0000 H   0  0  0  0  0  0  0  0  0  0  0  0
   -0.6123   -1.4782    0.0000 H   0  0  0  0  0  0  0  0  0  0  0  0
    1.3857    0.8000    0.0000 C   0  0  0  0  0  0  0  0  0  0  0  0
    2.7713    1.6000    0.0000 H   0  0  0  0  0  0  0  0  0  0  0  0
    2.7713    0.0000    0.0000 H   0  0  0  0  0  0  0  0  0  0  0  0
    1.3857    2.4000    0.0000 H   0  0  0  0  0  0  0  0  0  0  0  0
  1  2  2  0  0  0  0
  1  3  1  0  0  0  0
  3  4  1  0  0  0  0
  4  5  1  0  0  0  0
  4  6  1  0  0  0  0
  4  7  1  0  0  0  0
  7  8  1  0  0  0  0
  7  9  1  0  0  0  0
  7 10  1  0  0  0  0
  1 11  1  0  0  0  0
 11 12  1  0  0  0  0
 11 13  1  0  0  0  0
 11 14  1  0  0  0  0
 14 15  1  0  0  0  0
 14 16  1  0  0  0  0
 14 17  1  0  0  0  0
M  END
> <ChemID>
100807

> <source_casrn>
105-37-3

> <CAS>
105-37-3

> <SMILES>
CCC(=O)OCC

> <NAME>
ETHYL PROPIONATE

> <preferred_name>
Ethyl propionate

> <iupac>
ethyl propanoate

> <MPID>
19878

> <dsstox_substance_id>
DTXSID1040110

> <Canonical_QSARr>
CCC(=O)OCC

> <InChI_Code_QSARr>
InChI=1S/C5H10O2/c1-3-5(6)7-4-2/h3-4H2,1-2H3

> <InChI Key_QSARr>
FKRCODPIKNYEAC-UHFFFAOYSA-N

> <Salt_Solvent>
?

> <BP>
99.1

$$$$
100811
  -INDIGO-08031720192D

 25 24  0  0  0  0  0  0  0  0999 V2000
    4.1569   -0.8000    0.0000 C   0  0  0  0  0  0  0  0  0  0  0  0
    5.5426   -1.6000    0.0000 H   0  0  0  0  0  0  0  0  0  0  0  0
    5.5426    0.0000    0.0000 H   0  0  0  0  0  0  0  0  0  0  0  0
    4.1569   -2.4000    0.0000 H   0  0  0  0  0  0  0  0  0  0  0  0
    2.7713    0.0000    0.0000 C   0  0  0  0  0  0  0  0  0  0  0  0
    1.9712   -1.3857    0.0000 H   0  0  0  0  0  0  0  0  0  0  0  0
    1.3857    0.8000    0.0000 C   0  0  0  0  0  0  0  0  0  0  0  0
    0.7734    2.2782    0.0000 H   0  0  0  0  0  0  0  0  0  0  0  0
    1.9980    2.2782    0.0000 H   0  0  0  0  0  0  0  0  0  0  0  0
   -0.0001    0.0000    0.0000 C   0  0  0  0  0  0  0  0  0  0  0  0
    0.8000   -1.3857    0.0000 H   0  0  0  0  0  0  0  0  0  0  0  0
   -1.3857   -0.8000    0.0000 C   0  0  0  0  0  0  0  0  0  0  0  0
   -0.7734   -2.2782    0.0000 H   0  0  0  0  0  0  0  0  0  0  0  0
   -1.9980   -2.2782    0.0000 H   0  0  0  0  0  0  0  0  0  0  0  0
   -2.7713    0.0000    0.0000 C   0  0  0  0  0  0  0  0  0  0  0  0
   -4.1569   -0.8000    0.0000 H   0  0  0  0  0  0  0  0  0  0  0  0
   -4.1569    0.8000    0.0000 H   0  0  0  0  0  0  0  0  0  0  0  0
   -2.7713   -1.6000    0.0000 H   0  0  0  0  0  0  0  0  0  0  0  0
   -0.8000    1.3857    0.0000 C   0  0  0  0  0  0  0  0  0  0  0  0
   -1.6000    2.7713    0.0000 H   0  0  0  0  0  0  0  0  0  0  0  0
   -0.2527    2.8891    0.0000 H   0  0  0  0  0  0  0  0  0  0  0  0
   -2.4000    1.3857    0.0000 H   0  0  0  0  0  0  0  0  0  0  0  0
    3.5713    1.3857    0.0000 N   0  0  0  0  0  0  0  0  0  0  0  0
    3.0241    2.8891    0.0000 H   0  0  0  0  0  0  0  0  0  0  0  0
    5.1712    1.3857    0.0000 H   0  0  0  0  0  0  0  0  0  0  0  0
  1  2  1  0  0  0  0
  1  3  1  0  0  0  0
  1  4  1  0  0  0  0
  1  5  1  0  0  0  0
  5  6  1  0  0  0  0
  5  7  1  0  0  0  0
  7  8  1  0  0  0  0
  7  9  1  0  0  0  0
  7 10  1  0  0  0  0
 10 11  1  0  0  0  0
 10 12  1  0  0  0  0
 12 13  1  0  0  0  0
 12 14  1  0  0  0  0
 12 15  1  0  0  0  0
 15 16  1  0  0  0  0
 15 17  1  0  0  0  0
 15 18  1  0  0  0  0
 10 19  1  0  0  0  0
 19 20  1  0  0  0  0
 19 21  1  0  0  0  0
 19 22  1  0  0  0  0
  5 23  1  0  0  0  0
 23 24  1  0  0  0  0
 23 25  1  0  0  0  0
M  END
> <ChemID>
100811

> <source_casrn>
105-41-9

> <CAS>
NOCAS_861715

> <SMILES>
CCC(C)CC(C)N

> <NAME>
2-HEXANAMINE, 4-METHYL-

> <preferred_name>


> <iupac>


> <MPID>
19882

> <dsstox_substance_id>
DTXSID60861715

> <Canonical_QSARr>
CCC(C)CC(C)N

> <InChI_Code_QSARr>
InChI=1S/C7H17N/c1-4-6(2)5-7(3)8/h6-7H,4-5,8H2,1-3H3

> <InChI Key_QSARr>
YAHRDLICUYEDAU-UHFFFAOYSA-N

> <Salt_Solvent>
?

> <BP>
132.5

$$$$
100815
  -INDIGO-08031720192D

 17 16  0  0  0  0  0  0  0  0999 V2000
   -2.8891    0.2528    0.0000 C   0  0  0  0  0  0  0  0  0  0  0  0
   -1.3857    0.8000    0.0000 O   0  0  0  0  0  0  0  0  0  0  0  0
   -0.0001   -0.0000    0.0000 C   0  0  0  0  0  0  0  0  0  0  0  0
    1.3856   -0.8000    0.0000 H   0  0  0  0  0  0  0  0  0  0  0  0
    0.8000    1.3856    0.0000 C   0  0  0  0  0  0  0  0  0  0  0  0
    1.5999    2.7713    0.0000 H   0  0  0  0  0  0  0  0  0  0  0  0
    2.4000    1.3856    0.0000 H   0  0  0  0  0  0  0  0  0  0  0  0
   -0.0001    2.7713    0.0000 H   0  0  0  0  0  0  0  0  0  0  0  0
   -0.5472   -1.5035    0.0000 C   0  0  0  0  0  0  0  0  0  0  0  0
   -1.0945   -3.0070    0.0000 H   0  0  0  0  0  0  0  0  0  0  0  0
    0.4813   -2.7292    0.0000 H   0  0  0  0  0  0  0  0  0  0  0  0
   -2.1230   -1.7813    0.0000 H   0  0  0  0  0  0  0  0  0  0  0  0
   -4.1149    1.2812    0.0000 C   0  0  0  0  0  0  0  0  0  0  0  0
   -5.3405    2.3097    0.0000 H   0  0  0  0  0  0  0  0  0  0  0  0
   -5.6183    0.7340    0.0000 H   0  0  0  0  0  0  0  0  0  0  0  0
   -3.8370    2.8569    0.0000 Cl  0  0  0  0  0  0  0  0  0  0  0  0
   -3.1670   -1.3230    0.0000 O   0  0  0  0  0  0  0  0  0  0  0  0
  1  2  1  0  0  0  0
  2  3  1  0  0  0  0
  3  4  1  0  0  0  0
  3  5  1  0  0  0  0
  5  6  1  0  0  0  0
  5  7  1  0  0  0  0
  5  8  1  0  0  0  0
  3  9  1  0  0  0  0
  9 10  1  0  0  0  0
  9 11  1  0  0  0  0
  9 12  1  0  0  0  0
  1 13  1  0  0  0  0
 13 14  1  0  0  0  0
 13 15  1  0  0  0  0
 13 16  1  0  0  0  0
  1 17  2  0  0  0  0
M  END
> <ChemID>
100815

> <source_casrn>
105-48-6

> <CAS>
105-48-6

> <SMILES>
CC(C)OC(=O)CCl

> <NAME>
ISOPROPYL CHLOROACETATE

> <preferred_name>
Acetic acid, chloro-, 1-methylethyl ester

> <iupac>
propan-2-yl 2-chloroacetate

> <MPID>
19886

> <dsstox_substance_id>
DTXSID6059316

> <Canonical_QSARr>
CC(C)OC(=O)CCl

> <InChI_Code_QSARr>
InChI=1S/C5H9ClO2/c1-4(2)8-5(7)3-6/h4H,3H2,1-2H3

> <InChI Key_QSARr>
VODRWDBLLGYRJT-UHFFFAOYSA-N

> <Salt_Solvent>
?

> <BP>
150.5

$$$$
100819
  -INDIGO-08031720192D

 15 14  0  0  0  0  0  0  0  0999 V2000
   -2.7713    0.0000    0.0000 C   0  0  0  0  0  0  0  0  0  0  0  0
   -2.7713   -1.6000    0.0000 O   0  0  0  0  0  0  0  0  0  0  0  0
   -1.3856    0.8000    0.0000 O   0  0  0  0  0  0  0  0  0  0  0  0
    0.0000    0.0000    0.0000 C   0  0  0  0  0  0  0  0  0  0  0  0
    0.6123   -1.4782    0.0000 H   0  0  0  0  0  0  0  0  0  0  0  0
   -0.6123   -1.4782    0.0000 H   0  0  0  0  0  0  0  0  0  0  0  0
    1.3857    0.8000    0.0000 C   0  0  0  0  0  0  0  0  0  0  0  0
    2.7713    1.6000    0.0000 H   0  0  0  0  0  0  0  0  0  0  0  0
    2.7713    0.0000    0.0000 H   0  0  0  0  0  0  0  0  0  0  0  0
    1.3857    2.4000    0.0000 H   0  0  0  0  0  0  0  0  0  0  0  0
   -4.1570    0.8000    0.0000 C   0  0  0  0  0  0  0  0  0  0  0  0
   -4.7693    2.2782    0.0000 H   0  0  0  0  0  0  0  0  0  0  0  0
   -3.5447    2.2782    0.0000 H   0  0  0  0  0  0  0  0  0  0  0  0
   -5.5426    0.0000    0.0000 C   0  0  0  0  0  0  0  0  0  0  0  0
   -6.9282   -0.8000    0.0000 N   0  0  0  0  0  0  0  0  0  0  0  0
  1  2  2  0  0  0  0
  1  3  1  0  0  0  0
  3  4  1  0  0  0  0
  4  5  1  0  0  0  0
  4  6  1  0  0  0  0
  4  7  1  0  0  0  0
  7  8  1  0  0  0  0
  7  9  1  0  0  0  0
  7 10  1  0  0  0  0
  1 11  1  0  0  0  0
 11 12  1  0  0  0  0
 11 13  1  0  0  0  0
 11 14  1  0  0  0  0
 14 15  3  0  0  0  0
M  END
> <ChemID>
100819

> <source_casrn>
105-56-6

> <CAS>
105-56-6

> <SMILES>
CCOC(=O)CC#N

> <NAME>
ETHYL CYANOACETATE

> <preferred_name>
Ethyl cyanoacetate

> <iupac>
ethyl cyanoacetate

> <MPID>
19890

> <dsstox_substance_id>
DTXSID9026718

> <Canonical_QSARr>
CCOC(=O)CC#N

> <InChI_Code_QSARr>
InChI=1S/C5H7NO2/c1-2-8-5(7)3-4-6/h2-3H2,1H3

> <InChI Key_QSARr>
ZIUSEGSNTOUIPT-UHFFFAOYSA-N

> <Salt_Solvent>
?

> <BP>
210.0

$$$$
100823
  -INDIGO-08031720192D

 19 19  0  0  0  0  0  0  0  0999 V2000
    1.4942    4.9466    0.0000 O   0  0  0  0  0  0  0  0  0  0  0  0
    0.8000    3.5051    0.0000 C   0  0  0  0  0  0  0  0  0  0  0  0
    1.7976    2.2541    0.0000 C   0  0  0  0  0  0  0  0  0  0  0  0
    2.7952    3.5051    0.0000 H   0  0  0  0  0  0  0  0  0  0  0  0
    3.3378    1.8208    0.0000 H   0  0  0  0  0  0  0  0  0  0  0  0
    1.4415    0.6943    0.0000 C   0  0  0  0  0  0  0  0  0  0  0  0
    3.0416    0.6943    0.0000 H   0  0  0  0  0  0  0  0  0  0  0  0
    1.7976   -0.8657    0.0000 H   0  0  0  0  0  0  0  0  0  0  0  0
   -0.0000    0.0000    0.0000 C   0  0  0  0  0  0  0  0  0  0  0  0
    0.7652   -1.4052    0.0000 H   0  0  0  0  0  0  0  0  0  0  0  0
   -0.9976   -1.2510    0.0000 H   0  0  0  0  0  0  0  0  0  0  0  0
   -1.4415    0.6943    0.0000 C   0  0  0  0  0  0  0  0  0  0  0  0
   -2.0631   -0.7801    0.0000 H   0  0  0  0  0  0  0  0  0  0  0  0
   -3.0416    0.6943    0.0000 H   0  0  0  0  0  0  0  0  0  0  0  0
   -1.7976    2.2541    0.0000 C   0  0  0  0  0  0  0  0  0  0  0  0
   -3.3378    1.8208    0.0000 H   0  0  0  0  0  0  0  0  0  0  0  0
   -2.7952    3.5051    0.0000 H   0  0  0  0  0  0  0  0  0  0  0  0
   -0.8000    3.5051    0.0000 N   0  0  0  0  0  0  0  0  0  0  0  0
   -1.4942    4.9466    0.0000 H   0  0  0  0  0  0  0  0  0  0  0  0
  1  2  2  0  0  0  0
  2  3  1  0  0  0  0
  3  4  1  0  0  0  0
  3  5  1  0  0  0  0
  3  6  1  0  0  0  0
  6  7  1  0  0  0  0
  6  8  1  0  0  0  0
  6  9  1  0  0  0  0
  9 10  1  0  0  0  0
  9 11  1  0  0  0  0
  9 12  1  0  0  0  0
 12 13  1  0  0  0  0
 12 14  1  0  0  0  0
 12 15  1  0  0  0  0
 15 16  1  0  0  0  0
 15 17  1  0  0  0  0
 15 18  1  0  0  0  0
 18  2  1  0  0  0  0
 18 19  1  0  0  0  0
M  END
> <ChemID>
100823

> <source_casrn>
105-60-2

> <CAS>
105-60-2

> <SMILES>
O=C1CCCCCN1

> <NAME>
CAPROLACTAM

> <preferred_name>
Caprolactam

> <iupac>
azepan-2-one

> <MPID>
19894

> <dsstox_substance_id>
DTXSID4020240

> <Canonical_QSARr>
O=C1CCCCCN1

> <InChI_Code_QSARr>
InChI=1S/C6H11NO/c8-6-4-2-1-3-5-7-6/h1-5H2,(H,7,8)

> <InChI Key_QSARr>
JBKVHLHDHHXQEQ-UHFFFAOYSA-N

> <Salt_Solvent>
?

> <BP>
270.0

$$$$
100828
  -INDIGO-08031720192D

 36 35  0  0  0  0  0  0  0  0999 V2000
    4.1569    0.8000    0.0000 C   0  0  0  0  0  0  0  0  0  0  0  0
    5.5426    0.0000    0.0000 C   0  0  0  0  0  0  0  0  0  0  0  0
    5.5426   -1.6000    0.0000 H   0  0  0  0  0  0  0  0  0  0  0  0
    6.9282    0.8000    0.0000 C   0  0  0  0  0  0  0  0  0  0  0  0
    6.9282    2.4000    0.0000 H   0  0  0  0  0  0  0  0  0  0  0  0
    8.3138    0.0000    0.0000 C   0  0  0  0  0  0  0  0  0  0  0  0
    8.3138   -1.6000    0.0000 O   0  0  0  0  0  0  0  0  0  0  0  0
    9.6995    0.8000    0.0000 O   0  0  0  0  0  0  0  0  0  0  0  0
   11.0851    0.0000    0.0000 C   0  0  0  0  0  0  0  0  0  0  0  0
   10.4727   -1.4782    0.0000 H   0  0  0  0  0  0  0  0  0  0  0  0
   11.6975   -1.4782    0.0000 H   0  0  0  0  0  0  0  0  0  0  0  0
   12.4708    0.8000    0.0000 C   0  0  0  0  0  0  0  0  0  0  0  0
   13.0832    2.2782    0.0000 H   0  0  0  0  0  0  0  0  0  0  0  0
   11.8583    2.2782    0.0000 H   0  0  0  0  0  0  0  0  0  0  0  0
   13.8564    0.0000    0.0000 C   0  0  0  0  0  0  0  0  0  0  0  0
   13.2440   -1.4782    0.0000 H   0  0  0  0  0  0  0  0  0  0  0  0
   14.4688   -1.4782    0.0000 H   0  0  0  0  0  0  0  0  0  0  0  0
   15.2420    0.8000    0.0000 C   0  0  0  0  0  0  0  0  0  0  0  0
   16.6277    1.6000    0.0000 H   0  0  0  0  0  0  0  0  0  0  0  0
   16.6277    0.0000    0.0000 H   0  0  0  0  0  0  0  0  0  0  0  0
   15.2420    2.4000    0.0000 H   0  0  0  0  0  0  0  0  0  0  0  0
    4.1569    2.4000    0.0000 O   0  0  0  0  0  0  0  0  0  0  0  0
    2.7713    0.0000    0.0000 O   0  0  0  0  0  0  0  0  0  0  0  0
    1.3856    0.8000    0.0000 C   0  0  0  0  0  0  0  0  0  0  0  0
    1.9981    2.2782    0.0000 H   0  0  0  0  0  0  0  0  0  0  0  0
    0.7732    2.2782    0.0000 H   0  0  0  0  0  0  0  0  0  0  0  0
    0.0000    0.0000    0.0000 C   0  0  0  0  0  0  0  0  0  0  0  0
   -0.6124   -1.4782    0.0000 H   0  0  0  0  0  0  0  0  0  0  0  0
    0.6124   -1.4782    0.0000 H   0  0  0  0  0  0  0  0  0  0  0  0
   -1.3856    0.8000    0.0000 C   0  0  0  0  0  0  0  0  0  0  0  0
   -0.7732    2.2782    0.0000 H   0  0  0  0  0  0  0  0  0  0  0  0
   -1.9981    2.2782    0.0000 H   0  0  0  0  0  0  0  0  0  0  0  0
   -2.7713    0.0000    0.0000 C   0  0  0  0  0  0  0  0  0  0  0  0
   -4.1569   -0.8000    0.0000 H   0  0  0  0  0  0  0  0  0  0  0  0
   -4.1569    0.8000    0.0000 H   0  0  0  0  0  0  0  0  0  0  0  0
   -2.7713   -1.6000    0.0000 H   0  0  0  0  0  0  0  0  0  0  0  0
  1  2  1  0  0  0  0
  2  3  1  0  0  0  0
  2  4  2  0  0  0  0
  4  5  1  0  0  0  0
  4  6  1  0  0  0  0
  6  7  2  0  0  0  0
  6  8  1  0  0  0  0
  8  9  1  0  0  0  0
  9 10  1  0  0  0  0
  9 11  1  0  0  0  0
  9 12  1  0  0  0  0
 12 13  1  0  0  0  0
 12 14  1  0  0  0  0
 12 15  1  0  0  0  0
 15 16  1  0  0  0  0
 15 17  1  0  0  0  0
 15 18  1  0  0  0  0
 18 19  1  0  0  0  0
 18 20  1  0  0  0  0
 18 21  1  0  0  0  0
  1 22  2  0  0  0  0
  1 23  1  0  0  0  0
 23 24  1  0  0  0  0
 24 25  1  0  0  0  0
 24 26  1  0  0  0  0
 24 27  1  0  0  0  0
 27 28  1  0  0  0  0
 27 29  1  0  0  0  0
 27 30  1  0  0  0  0
 30 31  1  0  0  0  0
 30 32  1  0  0  0  0
 30 33  1  0  0  0  0
 33 34  1  0  0  0  0
 33 35  1  0  0  0  0
 33 36  1  0  0  0  0
M  END
> <ChemID>
100828

> <source_casrn>
105-76-0

> <CAS>
105-76-0

> <SMILES>
CCCCOC(=O)/C=C\C(=O)OCCCC

> <NAME>
DIBUTYL MALEATE

> <preferred_name>
Dibutyl maleate

> <iupac>
dibutyl (2Z)-but-2-enedioate

> <MPID>
19898

> <dsstox_substance_id>
DTXSID3026724

> <Canonical_QSARr>
CCCCOC(=O)C=CC(=O)OCCCC

> <InChI_Code_QSARr>
InChI=1S/C12H20O4/c1-3-5-9-15-11(13)7-8-12(14)16-10-6-4-2/h7-8H,3-6,9-10H2,1-2H3/b8-7+

> <InChI Key_QSARr>
JBSLOWBPDRZSMB-BQYQJAHWSA-N

> <Salt_Solvent>
?

> <BP>
281.0

$$$$
100832
  -INDIGO-08031720192D

 52 51  0  0  0  0  0  0  0  0999 V2000
   -2.7291   -0.4812    0.0000 N   0  0  0  0  0  0  0  0  0  0  0  0
   -2.4513   -2.0570    0.0000 H   0  0  0  0  0  0  0  0  0  0  0  0
   -4.2328    0.0661    0.0000 C   0  0  0  0  0  0  0  0  0  0  0  0
   -5.0924    1.4155    0.0000 H   0  0  0  0  0  0  0  0  0  0  0  0
   -3.8864    1.6281    0.0000 H   0  0  0  0  0  0  0  0  0  0  0  0
   -5.4584   -0.9625    0.0000 C   0  0  0  0  0  0  0  0  0  0  0  0
   -4.2328   -1.9908    0.0000 H   0  0  0  0  0  0  0  0  0  0  0  0
   -6.4867   -2.1881    0.0000 C   0  0  0  0  0  0  0  0  0  0  0  0
   -5.0676   -2.9269    0.0000 H   0  0  0  0  0  0  0  0  0  0  0  0
   -6.0056   -3.7141    0.0000 H   0  0  0  0  0  0  0  0  0  0  0  0
   -7.8724   -2.9881    0.0000 C   0  0  0  0  0  0  0  0  0  0  0  0
   -9.4587   -2.7793    0.0000 H   0  0  0  0  0  0  0  0  0  0  0  0
   -8.8466   -1.7187    0.0000 H   0  0  0  0  0  0  0  0  0  0  0  0
   -7.8724   -4.5882    0.0000 C   0  0  0  0  0  0  0  0  0  0  0  0
   -6.2861   -4.7970    0.0000 H   0  0  0  0  0  0  0  0  0  0  0  0
   -6.8985   -5.8576    0.0000 H   0  0  0  0  0  0  0  0  0  0  0  0
   -9.2581   -5.3882    0.0000 C   0  0  0  0  0  0  0  0  0  0  0  0
  -10.6437   -6.1882    0.0000 H   0  0  0  0  0  0  0  0  0  0  0  0
   -9.2581   -6.9881    0.0000 H   0  0  0  0  0  0  0  0  0  0  0  0
  -10.6437   -4.5882    0.0000 H   0  0  0  0  0  0  0  0  0  0  0  0
   -6.6840    0.0661    0.0000 C   0  0  0  0  0  0  0  0  0  0  0  0
   -7.8638   -1.0150    0.0000 H   0  0  0  0  0  0  0  0  0  0  0  0
   -8.2826    0.1358    0.0000 H   0  0  0  0  0  0  0  0  0  0  0  0
   -6.4061    1.6417    0.0000 C   0  0  0  0  0  0  0  0  0  0  0  0
   -7.6320    2.6702    0.0000 H   0  0  0  0  0  0  0  0  0  0  0  0
   -6.1283    3.2173    0.0000 H   0  0  0  0  0  0  0  0  0  0  0  0
   -7.9098    1.0944    0.0000 H   0  0  0  0  0  0  0  0  0  0  0  0
   -1.5036    0.5472    0.0000 C   0  0  0  0  0  0  0  0  0  0  0  0
   -2.3632    1.8966    0.0000 H   0  0  0  0  0  0  0  0  0  0  0  0
   -1.1572    2.1094    0.0000 H   0  0  0  0  0  0  0  0  0  0  0  0
    0.0001    0.0001    0.0000 C   0  0  0  0  0  0  0  0  0  0  0  0
   -0.8001   -1.3856    0.0000 H   0  0  0  0  0  0  0  0  0  0  0  0
    1.2257   -1.0285    0.0000 C   0  0  0  0  0  0  0  0  0  0  0  0
   -0.0436   -2.0024    0.0000 H   0  0  0  0  0  0  0  0  0  0  0  0
    1.0169   -2.6148    0.0000 H   0  0  0  0  0  0  0  0  0  0  0  0
    2.8013   -1.3063    0.0000 C   0  0  0  0  0  0  0  0  0  0  0  0
    4.2207   -0.5674    0.0000 H   0  0  0  0  0  0  0  0  0  0  0  0
    3.2826    0.2196    0.0000 H   0  0  0  0  0  0  0  0  0  0  0  0
    3.3485   -2.8099    0.0000 C   0  0  0  0  0  0  0  0  0  0  0  0
    1.9294   -3.5486    0.0000 H   0  0  0  0  0  0  0  0  0  0  0  0
    2.8675   -4.3358    0.0000 H   0  0  0  0  0  0  0  0  0  0  0  0
    4.9244   -3.0876    0.0000 C   0  0  0  0  0  0  0  0  0  0  0  0
    6.5000   -3.3655    0.0000 H   0  0  0  0  0  0  0  0  0  0  0  0
    5.4716   -4.5911    0.0000 H   0  0  0  0  0  0  0  0  0  0  0  0
    5.9527   -1.8619    0.0000 H   0  0  0  0  0  0  0  0  0  0  0  0
    0.8001    1.3856    0.0000 C   0  0  0  0  0  0  0  0  0  0  0  0
    2.2783    1.9980    0.0000 H   0  0  0  0  0  0  0  0  0  0  0  0
    2.2783    0.7734    0.0000 H   0  0  0  0  0  0  0  0  0  0  0  0
    0.0001    2.7713    0.0000 C   0  0  0  0  0  0  0  0  0  0  0  0
    0.8001    4.1569    0.0000 H   0  0  0  0  0  0  0  0  0  0  0  0
   -0.8001    4.1569    0.0000 H   0  0  0  0  0  0  0  0  0  0  0  0
    1.6000    2.7713    0.0000 H   0  0  0  0  0  0  0  0  0  0  0  0
  1  2  1  0  0  0  0
  1  3  1  0  0  0  0
  3  4  1  0  0  0  0
  3  5  1  0  0  0  0
  3  6  1  0  0  0  0
  6  7  1  0  0  0  0
  6  8  1  0  0  0  0
  8  9  1  0  0  0  0
  8 10  1  0  0  0  0
  8 11  1  0  0  0  0
 11 12  1  0  0  0  0
 11 13  1  0  0  0  0
 11 14  1  0  0  0  0
 14 15  1  0  0  0  0
 14 16  1  0  0  0  0
 14 17  1  0  0  0  0
 17 18  1  0  0  0  0
 17 19  1  0  0  0  0
 17 20  1  0  0  0  0
  6 21  1  0  0  0  0
 21 22  1  0  0  0  0
 21 23  1  0  0  0  0
 21 24  1  0  0  0  0
 24 25  1  0  0  0  0
 24 26  1  0  0  0  0
 24 27  1  0  0  0  0
  1 28  1  0  0  0  0
 28 29  1  0  0  0  0
 28 30  1  0  0  0  0
 28 31  1  0  0  0  0
 31 32  1  0  0  0  0
 31 33  1  0  0  0  0
 33 34  1  0  0  0  0
 33 35  1  0  0  0  0
 33 36  1  0  0  0  0
 36 37  1  0  0  0  0
 36 38  1  0  0  0  0
 36 39  1  0  0  0  0
 39 40  1  0  0  0  0
 39 41  1  0  0  0  0
 39 42  1  0  0  0  0
 42 43  1  0  0  0  0
 42 44  1  0  0  0  0
 42 45  1  0  0  0  0
 31 46  1  0  0  0  0
 46 47  1  0  0  0  0
 46 48  1  0  0  0  0
 46 49  1  0  0  0  0
 49 50  1  0  0  0  0
 49 51  1  0  0  0  0
 49 52  1  0  0  0  0
M  END
> <ChemID>
100832

> <source_casrn>
106-20-7

> <CAS>
106-20-7

> <SMILES>
CCCCC(CNCC(CCCC)CC)CC

> <NAME>
Di-(2-ethylhexyl)amine

> <preferred_name>
2,2'-Diethylhexylamine

> <iupac>
2-ethyl-N-(2-ethylhexyl)hexan-1-amine

> <MPID>
19902

> <dsstox_substance_id>
DTXSID7025053

> <Canonical_QSARr>
CCCCC(CNCC(CCCC)CC)CC

> <InChI_Code_QSARr>
InChI=1S/C16H35N/c1-5-9-11-15(7-3)13-17-14-16(8-4)12-10-6-2/h15-17H,5-14H2,1-4H3

> <InChI Key_QSARr>
SAIKULLUBZKPDA-UHFFFAOYSA-N

> <Salt_Solvent>
?

> <BP>
281.1

$$$$
100837
  -INDIGO-08031720192D

 29 28  0  0  0  0  0  0  0  0999 V2000
   -5.4584   -0.9625    0.0000 C   0  0  0  0  0  0  0  0  0  0  0  0
   -5.1805   -2.5381    0.0000 O   0  0  0  0  0  0  0  0  0  0  0  0
   -4.2326    0.0660    0.0000 O   0  0  0  0  0  0  0  0  0  0  0  0
   -2.7292   -0.4813    0.0000 C   0  0  0  0  0  0  0  0  0  0  0  0
   -3.0755   -2.0433    0.0000 H   0  0  0  0  0  0  0  0  0  0  0  0
   -1.8695   -1.8307    0.0000 H   0  0  0  0  0  0  0  0  0  0  0  0
   -1.5036    0.5472    0.0000 C   0  0  0  0  0  0  0  0  0  0  0  0
   -1.1573    2.1093    0.0000 H   0  0  0  0  0  0  0  0  0  0  0  0
   -2.3633    1.8966    0.0000 H   0  0  0  0  0  0  0  0  0  0  0  0
    0.0001   -0.0000    0.0000 C   0  0  0  0  0  0  0  0  0  0  0  0
   -0.7999   -1.3856    0.0000 H   0  0  0  0  0  0  0  0  0  0  0  0
    1.3857   -0.8000    0.0000 C   0  0  0  0  0  0  0  0  0  0  0  0
    2.7713   -1.6000    0.0000 H   0  0  0  0  0  0  0  0  0  0  0  0
    1.3857   -2.4000    0.0000 H   0  0  0  0  0  0  0  0  0  0  0  0
    2.7713   -0.0000    0.0000 H   0  0  0  0  0  0  0  0  0  0  0  0
    0.8001    1.3856    0.0000 C   0  0  0  0  0  0  0  0  0  0  0  0
    1.6001    2.7713    0.0000 H   0  0  0  0  0  0  0  0  0  0  0  0
    0.0001    2.7713    0.0000 H   0  0  0  0  0  0  0  0  0  0  0  0
    2.4001    1.3856    0.0000 H   0  0  0  0  0  0  0  0  0  0  0  0
   -6.9619   -0.4152    0.0000 C   0  0  0  0  0  0  0  0  0  0  0  0
   -6.6156    1.1468    0.0000 H   0  0  0  0  0  0  0  0  0  0  0  0
   -7.8215    0.9342    0.0000 H   0  0  0  0  0  0  0  0  0  0  0  0
   -8.1876   -1.4437    0.0000 C   0  0  0  0  0  0  0  0  0  0  0  0
   -8.5339   -3.0058    0.0000 H   0  0  0  0  0  0  0  0  0  0  0  0
   -7.3278   -2.7931    0.0000 H   0  0  0  0  0  0  0  0  0  0  0  0
   -9.6911   -0.8965    0.0000 C   0  0  0  0  0  0  0  0  0  0  0  0
  -11.1946   -0.3492    0.0000 H   0  0  0  0  0  0  0  0  0  0  0  0
  -10.9167   -1.9249    0.0000 H   0  0  0  0  0  0  0  0  0  0  0  0
   -9.9690    0.6793    0.0000 H   0  0  0  0  0  0  0  0  0  0  0  0
  1  2  2  0  0  0  0
  1  3  1  0  0  0  0
  3  4  1  0  0  0  0
  4  5  1  0  0  0  0
  4  6  1  0  0  0  0
  4  7  1  0  0  0  0
  7  8  1  0  0  0  0
  7  9  1  0  0  0  0
  7 10  1  0  0  0  0
 10 11  1  0  0  0  0
 10 12  1  0  0  0  0
 12 13  1  0  0  0  0
 12 14  1  0  0  0  0
 12 15  1  0  0  0  0
 10 16  1  0  0  0  0
 16 17  1  0  0  0  0
 16 18  1  0  0  0  0
 16 19  1  0  0  0  0
  1 20  1  0  0  0  0
 20 21  1  0  0  0  0
 20 22  1  0  0  0  0
 20 23  1  0  0  0  0
 23 24  1  0  0  0  0
 23 25  1  0  0  0  0
 23 26  1  0  0  0  0
 26 27  1  0  0  0  0
 26 28  1  0  0  0  0
 26 29  1  0  0  0  0
M  END
> <ChemID>
100837

> <source_casrn>
106-27-4

> <CAS>
106-27-4

> <SMILES>
CCCC(=O)OCCC(C)C

> <NAME>
ISOPENTYL BUTANOATE

> <preferred_name>
Isopentyl butyrate

> <iupac>
3-methylbutyl butanoate

> <MPID>
19907

> <dsstox_substance_id>
DTXSID3042059

> <Canonical_QSARr>
CCCC(=O)OCCC(C)C

> <InChI_Code_QSARr>
InChI=1S/C9H18O2/c1-4-5-9(10)11-7-6-8(2)3/h8H,4-7H2,1-3H3

> <InChI Key_QSARr>
PQLMXFQTAMDXIZ-UHFFFAOYSA-N

> <Salt_Solvent>
?

> <BP>
179.0

$$$$
100841
  -INDIGO-08031720192D

 44 43  0  0  0  0  0  0  0  0999 V2000
   -8.3138    0.0000    0.0000 C   0  0  0  0  0  0  0  0  0  0  0  0
   -6.9281    0.8000    0.0000 C   0  0  0  0  0  0  0  0  0  0  0  0
   -6.3158    2.2782    0.0000 H   0  0  0  0  0  0  0  0  0  0  0  0
   -7.5404    2.2782    0.0000 H   0  0  0  0  0  0  0  0  0  0  0  0
   -5.5424    0.0000    0.0000 C   0  0  0  0  0  0  0  0  0  0  0  0
   -6.1548   -1.4782    0.0000 H   0  0  0  0  0  0  0  0  0  0  0  0
   -4.9301   -1.4782    0.0000 H   0  0  0  0  0  0  0  0  0  0  0  0
   -4.1568    0.8000    0.0000 C   0  0  0  0  0  0  0  0  0  0  0  0
   -3.5448    2.2782    0.0000 H   0  0  0  0  0  0  0  0  0  0  0  0
   -4.7691    2.2782    0.0000 H   0  0  0  0  0  0  0  0  0  0  0  0
   -2.7711    0.0000    0.0000 C   0  0  0  0  0  0  0  0  0  0  0  0
   -3.3834   -1.4782    0.0000 H   0  0  0  0  0  0  0  0  0  0  0  0
   -2.1591   -1.4782    0.0000 H   0  0  0  0  0  0  0  0  0  0  0  0
   -1.3858    0.8000    0.0000 C   0  0  0  0  0  0  0  0  0  0  0  0
   -0.7735    2.2782    0.0000 H   0  0  0  0  0  0  0  0  0  0  0  0
   -1.9978    2.2782    0.0000 H   0  0  0  0  0  0  0  0  0  0  0  0
   -0.0001    0.0000    0.0000 C   0  0  0  0  0  0  0  0  0  0  0  0
   -0.6124   -1.4782    0.0000 H   0  0  0  0  0  0  0  0  0  0  0  0
    0.6122   -1.4782    0.0000 H   0  0  0  0  0  0  0  0  0  0  0  0
    1.3855    0.8000    0.0000 C   0  0  0  0  0  0  0  0  0  0  0  0
    1.9979    2.2782    0.0000 H   0  0  0  0  0  0  0  0  0  0  0  0
    0.7732    2.2782    0.0000 H   0  0  0  0  0  0  0  0  0  0  0  0
    2.7712    0.0000    0.0000 C   0  0  0  0  0  0  0  0  0  0  0  0
    2.1589   -1.4782    0.0000 H   0  0  0  0  0  0  0  0  0  0  0  0
    3.3835   -1.4782    0.0000 H   0  0  0  0  0  0  0  0  0  0  0  0
    4.1569    0.8000    0.0000 C   0  0  0  0  0  0  0  0  0  0  0  0
    4.7692    2.2782    0.0000 H   0  0  0  0  0  0  0  0  0  0  0  0
    3.5445    2.2782    0.0000 H   0  0  0  0  0  0  0  0  0  0  0  0
    5.5425    0.0000    0.0000 C   0  0  0  0  0  0  0  0  0  0  0  0
    4.9302   -1.4782    0.0000 H   0  0  0  0  0  0  0  0  0  0  0  0
    6.1548   -1.4782    0.0000 H   0  0  0  0  0  0  0  0  0  0  0  0
    6.9282    0.8000    0.0000 C   0  0  0  0  0  0  0  0  0  0  0  0
    8.3138    1.6000    0.0000 H   0  0  0  0  0  0  0  0  0  0  0  0
    8.3138    0.0000    0.0000 H   0  0  0  0  0  0  0  0  0  0  0  0
    6.9282    2.4000    0.0000 H   0  0  0  0  0  0  0  0  0  0  0  0
   -9.6994    0.8000    0.0000 O   0  0  0  0  0  0  0  0  0  0  0  0
  -11.0851    0.0000    0.0000 C   0  0  0  0  0  0  0  0  0  0  0  0
  -11.6974   -1.4782    0.0000 H   0  0  0  0  0  0  0  0  0  0  0  0
  -10.4728   -1.4782    0.0000 H   0  0  0  0  0  0  0  0  0  0  0  0
  -12.4707    0.8000    0.0000 C   0  0  0  0  0  0  0  0  0  0  0  0
  -13.8564    1.6000    0.0000 H   0  0  0  0  0  0  0  0  0  0  0  0
  -13.8564    0.0000    0.0000 H   0  0  0  0  0  0  0  0  0  0  0  0
  -12.4707    2.4000    0.0000 H   0  0  0  0  0  0  0  0  0  0  0  0
   -8.3138   -1.6000    0.0000 O   0  0  0  0  0  0  0  0  0  0  0  0
  1  2  1  0  0  0  0
  2  3  1  0  0  0  0
  2  4  1  0  0  0  0
  2  5  1  0  0  0  0
  5  6  1  0  0  0  0
  5  7  1  0  0  0  0
  5  8  1  0  0  0  0
  8  9  1  0  0  0  0
  8 10  1  0  0  0  0
  8 11  1  0  0  0  0
 11 12  1  0  0  0  0
 11 13  1  0  0  0  0
 11 14  1  0  0  0  0
 14 15  1  0  0  0  0
 14 16  1  0  0  0  0
 14 17  1  0  0  0  0
 17 18  1  0  0  0  0
 17 19  1  0  0  0  0
 17 20  1  0  0  0  0
 20 21  1  0  0  0  0
 20 22  1  0  0  0  0
 20 23  1  0  0  0  0
 23 24  1  0  0  0  0
 23 25  1  0  0  0  0
 23 26  1  0  0  0  0
 26 27  1  0  0  0  0
 26 28  1  0  0  0  0
 26 29  1  0  0  0  0
 29 30  1  0  0  0  0
 29 31  1  0  0  0  0
 29 32  1  0  0  0  0
 32 33  1  0  0  0  0
 32 34  1  0  0  0  0
 32 35  1  0  0  0  0
  1 36  1  0  0  0  0
 36 37  1  0  0  0  0
 37 38  1  0  0  0  0
 37 39  1  0  0  0  0
 37 40  1  0  0  0  0
 40 41  1  0  0  0  0
 40 42  1  0  0  0  0
 40 43  1  0  0  0  0
  1 44  2  0  0  0  0
M  END
> <ChemID>
100841

> <source_casrn>
106-33-2

> <CAS>
106-33-2

> <SMILES>
CCCCCCCCCCCC(=O)OCC

> <NAME>
ETHYL LAURATE

> <preferred_name>
Ethyl dodecanoate

> <iupac>
ethyl dodecanoate

> <MPID>
19911

> <dsstox_substance_id>
DTXSID4047044

> <Canonical_QSARr>
CCCCCCCCCCCC(=O)OCC

> <InChI_Code_QSARr>
InChI=1S/C14H28O2/c1-3-5-6-7-8-9-10-11-12-13-14(15)16-4-2/h3-13H2,1-2H3

> <InChI Key_QSARr>
MMXKVMNBHPAILY-UHFFFAOYSA-N

> <Salt_Solvent>
?

> <BP>
271.0

$$$$
100845
  -INDIGO-08031720192D

 15 15  0  0  0  0  0  0  0  0999 V2000
    0.0000   -0.0000    0.0000 C   0  0  0  0  0  0  0  0  0  0  0  0
   -0.8001    1.3856    0.0000 C   0  0  0  0  0  0  0  0  0  0  0  0
    0.0000    2.7713    0.0000 H   0  0  0  0  0  0  0  0  0  0  0  0
   -2.4001    1.3856    0.0000 C   0  0  0  0  0  0  0  0  0  0  0  0
   -3.2000    2.7713    0.0000 H   0  0  0  0  0  0  0  0  0  0  0  0
   -3.2000   -0.0000    0.0000 C   0  0  0  0  0  0  0  0  0  0  0  0
   -4.8000   -0.0000    0.0000 Br  0  0  0  0  0  0  0  0  0  0  0  0
   -2.4001   -1.3856    0.0000 C   0  0  0  0  0  0  0  0  0  0  0  0
   -3.2000   -2.7713    0.0000 H   0  0  0  0  0  0  0  0  0  0  0  0
   -0.8001   -1.3856    0.0000 C   0  0  0  0  0  0  0  0  0  0  0  0
    0.0000   -2.7713    0.0000 H   0  0  0  0  0  0  0  0  0  0  0  0
    1.6000   -0.0000    0.0000 C   0  0  0  0  0  0  0  0  0  0  0  0
    3.2000   -0.0000    0.0000 H   0  0  0  0  0  0  0  0  0  0  0  0
    2.4001   -1.3856    0.0000 H   0  0  0  0  0  0  0  0  0  0  0  0
    2.4001    1.3856    0.0000 H   0  0  0  0  0  0  0  0  0  0  0  0
  1  2  1  0  0  0  0
  2  3  1  0  0  0  0
  2  4  2  0  0  0  0
  4  5  1  0  0  0  0
  4  6  1  0  0  0  0
  6  7  1  0  0  0  0
  6  8  2  0  0  0  0
  8  9  1  0  0  0  0
  8 10  1  0  0  0  0
 10  1  2  0  0  0  0
 10 11  1  0  0  0  0
  1 12  1  0  0  0  0
 12 13  1  0  0  0  0
 12 14  1  0  0  0  0
 12 15  1  0  0  0  0
M  END
> <ChemID>
100845

> <source_casrn>
106-38-7

> <CAS>
106-38-7

> <SMILES>
Cc1ccc(Br)cc1

> <NAME>
P-BROMOTOLUENE

> <preferred_name>
4-Bromotoluene

> <iupac>
1-bromo-4-methylbenzene

> <MPID>
19915

> <dsstox_substance_id>
DTXSID7024661

> <Canonical_QSARr>
Cc1ccc(Br)cc1

> <InChI_Code_QSARr>
InChI=1S/C7H7Br/c1-6-2-4-7(8)5-3-6/h2-5H,1H3

> <InChI Key_QSARr>
ZBTMRBYMKUEVEU-UHFFFAOYSA-N

> <Salt_Solvent>
?

> <BP>
184.3

$$$$
100849
  -INDIGO-08031720192D

 15 15  0  0  0  0  0  0  0  0999 V2000
    1.6000   -0.0000    0.0000 C   0  0  0  0  0  0  0  0  0  0  0  0
    3.2000   -0.0000    0.0000 H   0  0  0  0  0  0  0  0  0  0  0  0
    2.4001   -1.3856    0.0000 H   0  0  0  0  0  0  0  0  0  0  0  0
    2.4001    1.3856    0.0000 H   0  0  0  0  0  0  0  0  0  0  0  0
    0.0000   -0.0000    0.0000 C   0  0  0  0  0  0  0  0  0  0  0  0
   -0.7999    1.3856    0.0000 C   0  0  0  0  0  0  0  0  0  0  0  0
    0.0000    2.7713    0.0000 H   0  0  0  0  0  0  0  0  0  0  0  0
   -2.4001    1.3856    0.0000 C   0  0  0  0  0  0  0  0  0  0  0  0
   -3.2000    2.7713    0.0000 H   0  0  0  0  0  0  0  0  0  0  0  0
   -3.2000   -0.0000    0.0000 C   0  0  0  0  0  0  0  0  0  0  0  0
   -4.8000   -0.0000    0.0000 Cl  0  0  0  0  0  0  0  0  0  0  0  0
   -2.4001   -1.3856    0.0000 C   0  0  0  0  0  0  0  0  0  0  0  0
   -3.2000   -2.7713    0.0000 H   0  0  0  0  0  0  0  0  0  0  0  0
   -0.8001   -1.3856    0.0000 C   0  0  0  0  0  0  0  0  0  0  0  0
    0.0000   -2.7713    0.0000 H   0  0  0  0  0  0  0  0  0  0  0  0
  1  2  1  0  0  0  0
  1  3  1  0  0  0  0
  1  4  1  0  0  0  0
  1  5  1  0  0  0  0
  5  6  1  0  0  0  0
  6  7  1  0  0  0  0
  6  8  2  0  0  0  0
  8  9  1  0  0  0  0
  8 10  1  0  0  0  0
 10 11  1  0  0  0  0
 10 12  2  0  0  0  0
 12 13  1  0  0  0  0
 12 14  1  0  0  0  0
 14  5  2  0  0  0  0
 14 15  1  0  0  0  0
M  END
> <ChemID>
100849

> <source_casrn>
106-43-4

> <CAS>
106-43-4

> <SMILES>
Cc1ccc(Cl)cc1

> <NAME>
P-CHLOROTOLUENE

> <preferred_name>
4-Chlorotoluene

> <iupac>
1-chloro-4-methylbenzene

> <MPID>
19919

> <dsstox_substance_id>
DTXSID8024814

> <Canonical_QSARr>
Cc1ccc(Cl)cc1

> <InChI_Code_QSARr>
InChI=1S/C7H7Cl/c1-6-2-4-7(8)5-3-6/h2-5H,1H3

> <InChI Key_QSARr>
NPDACUSDTOMAMK-UHFFFAOYSA-N

> <Salt_Solvent>
?

> <BP>
162.4

$$$$
100853
  -INDIGO-08031720192D

 14 14  0  0  0  0  0  0  0  0999 V2000
    1.6000   -0.0000    0.0000 N   0  0  0  0  0  0  0  0  0  0  0  0
    2.4000    1.3856    0.0000 H   0  0  0  0  0  0  0  0  0  0  0  0
    2.4000   -1.3856    0.0000 H   0  0  0  0  0  0  0  0  0  0  0  0
    0.0000   -0.0000    0.0000 C   0  0  0  0  0  0  0  0  0  0  0  0
   -0.8000    1.3856    0.0000 C   0  0  0  0  0  0  0  0  0  0  0  0
    0.0000    2.7713    0.0000 H   0  0  0  0  0  0  0  0  0  0  0  0
   -2.4000    1.3856    0.0000 C   0  0  0  0  0  0  0  0  0  0  0  0
   -3.2000    2.7713    0.0000 H   0  0  0  0  0  0  0  0  0  0  0  0
   -3.2000   -0.0000    0.0000 C   0  0  0  0  0  0  0  0  0  0  0  0
   -4.8000   -0.0000    0.0000 Cl  0  0  0  0  0  0  0  0  0  0  0  0
   -2.4000   -1.3856    0.0000 C   0  0  0  0  0  0  0  0  0  0  0  0
   -3.2000   -2.7713    0.0000 H   0  0  0  0  0  0  0  0  0  0  0  0
   -0.8000   -1.3856    0.0000 C   0  0  0  0  0  0  0  0  0  0  0  0
    0.0000   -2.7713    0.0000 H   0  0  0  0  0  0  0  0  0  0  0  0
  1  2  1  0  0  0  0
  1  3  1  0  0  0  0
  1  4  1  0  0  0  0
  4  5  1  0  0  0  0
  5  6  1  0  0  0  0
  5  7  2  0  0  0  0
  7  8  1  0  0  0  0
  7  9  1  0  0  0  0
  9 10  1  0  0  0  0
  9 11  2  0  0  0  0
 11 12  1  0  0  0  0
 11 13  1  0  0  0  0
 13  4  2  0  0  0  0
 13 14  1  0  0  0  0
M  END
> <ChemID>
100853

> <source_casrn>
106-47-8

> <CAS>
106-47-8

> <SMILES>
Nc1ccc(Cl)cc1

> <NAME>
4-CHLOROANILINE

> <preferred_name>
4-Chloroaniline

> <iupac>
4-chloroaniline

> <MPID>
19923

> <dsstox_substance_id>
DTXSID9020295

> <Canonical_QSARr>
Nc1ccc(Cl)cc1

> <InChI_Code_QSARr>
InChI=1S/C6H6ClN/c7-5-1-3-6(8)4-2-5/h1-4H,8H2

> <InChI Key_QSARr>
QSNSCYSYFYORTR-UHFFFAOYSA-N

> <Salt_Solvent>
?

> <BP>
232.0

$$$$
100857
  -INDIGO-08031720192D

 21 21  0  0  0  0  0  0  0  0999 V2000
    2.3999    1.3857    0.0000 C   0  0  0  0  0  0  0  0  0  0  0  0
    3.9036    1.9329    0.0000 H   0  0  0  0  0  0  0  0  0  0  0  0
    2.1222    2.9613    0.0000 H   0  0  0  0  0  0  0  0  0  0  0  0
    3.1999    0.0000    0.0000 N   0  0  0  0  0  0  0  0  0  0  0  0
    4.8000   -0.0000    0.0000 C   0  0  0  0  0  0  0  0  0  0  0  0
    6.4000   -0.0000    0.0000 H   0  0  0  0  0  0  0  0  0  0  0  0
    5.6000   -1.3857    0.0000 H   0  0  0  0  0  0  0  0  0  0  0  0
    5.6000    1.3857    0.0000 H   0  0  0  0  0  0  0  0  0  0  0  0
    2.3999   -1.3857    0.0000 C   0  0  0  0  0  0  0  0  0  0  0  0
    3.9036   -1.9329    0.0000 H   0  0  0  0  0  0  0  0  0  0  0  0
    2.1222   -2.9613    0.0000 H   0  0  0  0  0  0  0  0  0  0  0  0
    0.8000   -1.3857    0.0000 C   0  0  0  0  0  0  0  0  0  0  0  0
    1.0778   -2.9613    0.0000 H   0  0  0  0  0  0  0  0  0  0  0  0
   -0.7034   -1.9329    0.0000 H   0  0  0  0  0  0  0  0  0  0  0  0
    0.0000    0.0000    0.0000 C   0  0  0  0  0  0  0  0  0  0  0  0
   -1.2257   -1.0285    0.0000 H   0  0  0  0  0  0  0  0  0  0  0  0
   -1.2257    1.0285    0.0000 O   0  0  0  0  0  0  0  0  0  0  0  0
   -2.7292    0.4812    0.0000 H   0  0  0  0  0  0  0  0  0  0  0  0
    0.8000    1.3857    0.0000 C   0  0  0  0  0  0  0  0  0  0  0  0
   -0.7034    1.9329    0.0000 H   0  0  0  0  0  0  0  0  0  0  0  0
    1.0778    2.9613    0.0000 H   0  0  0  0  0  0  0  0  0  0  0  0
  1  2  1  0  0  0  0
  1  3  1  0  0  0  0
  1  4  1  0  0  0  0
  4  5  1  0  0  0  0
  5  6  1  0  0  0  0
  5  7  1  0  0  0  0
  5  8  1  0  0  0  0
  4  9  1  0  0  0  0
  9 10  1  0  0  0  0
  9 11  1  0  0  0  0
  9 12  1  0  0  0  0
 12 13  1  0  0  0  0
 12 14  1  0  0  0  0
 12 15  1  0  0  0  0
 15 16  1  0  0  0  0
 15 17  1  0  0  0  0
 17 18  1  0  0  0  0
 15 19  1  0  0  0  0
 19  1  1  0  0  0  0
 19 20  1  0  0  0  0
 19 21  1  0  0  0  0
M  END
> <ChemID>
100857

> <source_casrn>
106-52-5

> <CAS>
106-52-5

> <SMILES>
CN1CCC(O)CC1

> <NAME>
4-Piperidinol, 1-methyl-

> <preferred_name>
4-Piperidinol, 1-methyl-

> <iupac>
1-Methylpiperidin-4-ol

> <MPID>
19927

> <dsstox_substance_id>
DTXSID9059339

> <Canonical_QSARr>
CN1CCC(O)CC1

> <InChI_Code_QSARr>
InChI=1S/C6H13NO/c1-7-4-2-6(8)3-5-7/h6,8H,2-5H2,1H3

> <InChI Key_QSARr>
BAUWRHPMUVYFOD-UHFFFAOYSA-N

> <Salt_Solvent>
?

> <BP>
200.0

$$$$
100861
  -INDIGO-08031720192D

 22 22  0  0  0  0  0  0  0  0999 V2000
    0.8000    1.3856    0.0000 N   0  0  0  0  0  0  0  0  0  0  0  0
    0.0000    2.7713    0.0000 C   0  0  0  0  0  0  0  0  0  0  0  0
    1.5036    3.3185    0.0000 H   0  0  0  0  0  0  0  0  0  0  0  0
   -0.2778    4.3470    0.0000 H   0  0  0  0  0  0  0  0  0  0  0  0
   -1.6000    2.7713    0.0000 C   0  0  0  0  0  0  0  0  0  0  0  0
   -1.3222    4.3470    0.0000 H   0  0  0  0  0  0  0  0  0  0  0  0
   -3.1036    3.3185    0.0000 H   0  0  0  0  0  0  0  0  0  0  0  0
   -2.4000    1.3857    0.0000 N   0  0  0  0  0  0  0  0  0  0  0  0
   -3.9999    1.3856    0.0000 C   0  0  0  0  0  0  0  0  0  0  0  0
   -5.6000    1.3856    0.0000 H   0  0  0  0  0  0  0  0  0  0  0  0
   -4.8000   -0.0000    0.0000 H   0  0  0  0  0  0  0  0  0  0  0  0
   -4.8000    2.7713    0.0000 H   0  0  0  0  0  0  0  0  0  0  0  0
   -1.6000   -0.0000    0.0000 C   0  0  0  0  0  0  0  0  0  0  0  0
   -3.1036   -0.5472    0.0000 H   0  0  0  0  0  0  0  0  0  0  0  0
   -1.3222   -1.5757    0.0000 H   0  0  0  0  0  0  0  0  0  0  0  0
    0.0000   -0.0000    0.0000 C   0  0  0  0  0  0  0  0  0  0  0  0
   -0.2778   -1.5757    0.0000 H   0  0  0  0  0  0  0  0  0  0  0  0
    1.5036   -0.5472    0.0000 H   0  0  0  0  0  0  0  0  0  0  0  0
    2.4001    1.3856    0.0000 C   0  0  0  0  0  0  0  0  0  0  0  0
    4.0000    1.3856    0.0000 H   0  0  0  0  0  0  0  0  0  0  0  0
    3.2000   -0.0000    0.0000 H   0  0  0  0  0  0  0  0  0  0  0  0
    3.2000    2.7713    0.0000 H   0  0  0  0  0  0  0  0  0  0  0  0
  1  2  1  0  0  0  0
  2  3  1  0  0  0  0
  2  4  1  0  0  0  0
  2  5  1  0  0  0  0
  5  6  1  0  0  0  0
  5  7  1  0  0  0  0
  5  8  1  0  0  0  0
  8  9  1  0  0  0  0
  9 10  1  0  0  0  0
  9 11  1  0  0  0  0
  9 12  1  0  0  0  0
  8 13  1  0  0  0  0
 13 14  1  0  0  0  0
 13 15  1  0  0  0  0
 13 16  1  0  0  0  0
 16  1  1  0  0  0  0
 16 17  1  0  0  0  0
 16 18  1  0  0  0  0
  1 19  1  0  0  0  0
 19 20  1  0  0  0  0
 19 21  1  0  0  0  0
 19 22  1  0  0  0  0
M  END
> <ChemID>
100861

> <source_casrn>
106-58-1

> <CAS>
106-58-1

> <SMILES>
CN1CCN(C)CC1

> <NAME>
PIPERAZINE, 1,4-DIMETHYL-

> <preferred_name>
1,4-Dimethylpiperazine

> <iupac>
1,4-dimethylpiperazine

> <MPID>
19931

> <dsstox_substance_id>
DTXSID8051544

> <Canonical_QSARr>
CN1CCN(C)CC1

> <InChI_Code_QSARr>
InChI=1S/C6H14N2/c1-7-3-5-8(2)6-4-7/h3-6H2,1-2H3

> <InChI Key_QSARr>
RXYPXQSKLGGKOL-UHFFFAOYSA-N

> <Salt_Solvent>
?

> <BP>
131.0

$$$$
100865
  -INDIGO-08031720192D

 23 22  0  0  0  0  0  0  0  0999 V2000
   -4.1569    0.8000    0.0000 C   0  0  0  0  0  0  0  0  0  0  0  0
   -2.7712    0.0000    0.0000 C   0  0  0  0  0  0  0  0  0  0  0  0
   -3.3836   -1.4782    0.0000 H   0  0  0  0  0  0  0  0  0  0  0  0
   -2.1590   -1.4782    0.0000 H   0  0  0  0  0  0  0  0  0  0  0  0
   -1.3857    0.8000    0.0000 C   0  0  0  0  0  0  0  0  0  0  0  0
   -0.7733    2.2782    0.0000 H   0  0  0  0  0  0  0  0  0  0  0  0
   -1.9979    2.2782    0.0000 H   0  0  0  0  0  0  0  0  0  0  0  0
    0.0000    0.0000    0.0000 C   0  0  0  0  0  0  0  0  0  0  0  0
   -0.6124   -1.4782    0.0000 H   0  0  0  0  0  0  0  0  0  0  0  0
    0.6124   -1.4782    0.0000 H   0  0  0  0  0  0  0  0  0  0  0  0
    1.3857    0.8000    0.0000 C   0  0  0  0  0  0  0  0  0  0  0  0
    1.9979    2.2782    0.0000 H   0  0  0  0  0  0  0  0  0  0  0  0
    0.7733    2.2782    0.0000 H   0  0  0  0  0  0  0  0  0  0  0  0
    2.7712    0.0000    0.0000 C   0  0  0  0  0  0  0  0  0  0  0  0
    4.1569   -0.8000    0.0000 H   0  0  0  0  0  0  0  0  0  0  0  0
    4.1569    0.8000    0.0000 H   0  0  0  0  0  0  0  0  0  0  0  0
    2.7712   -1.6000    0.0000 H   0  0  0  0  0  0  0  0  0  0  0  0
   -5.5426    0.0000    0.0000 O   0  0  0  0  0  0  0  0  0  0  0  0
   -6.9281    0.8000    0.0000 C   0  0  0  0  0  0  0  0  0  0  0  0
   -8.3138    1.6000    0.0000 H   0  0  0  0  0  0  0  0  0  0  0  0
   -8.3138    0.0000    0.0000 H   0  0  0  0  0  0  0  0  0  0  0  0
   -6.9281    2.4000    0.0000 H   0  0  0  0  0  0  0  0  0  0  0  0
   -4.1569    2.4000    0.0000 O   0  0  0  0  0  0  0  0  0  0  0  0
  1  2  1  0  0  0  0
  2  3  1  0  0  0  0
  2  4  1  0  0  0  0
  2  5  1  0  0  0  0
  5  6  1  0  0  0  0
  5  7  1  0  0  0  0
  5  8  1  0  0  0  0
  8  9  1  0  0  0  0
  8 10  1  0  0  0  0
  8 11  1  0  0  0  0
 11 12  1  0  0  0  0
 11 13  1  0  0  0  0
 11 14  1  0  0  0  0
 14 15  1  0  0  0  0
 14 16  1  0  0  0  0
 14 17  1  0  0  0  0
  1 18  1  0  0  0  0
 18 19  1  0  0  0  0
 19 20  1  0  0  0  0
 19 21  1  0  0  0  0
 19 22  1  0  0  0  0
  1 23  2  0  0  0  0
M  END
> <ChemID>
100865

> <source_casrn>
106-70-7

> <CAS>
106-70-7

> <SMILES>
CCCCCC(=O)OC

> <NAME>
METHYL HEXANOATE

> <preferred_name>
Methyl hexanoate

> <iupac>
methyl hexanoate

> <MPID>
19935

> <dsstox_substance_id>
DTXSID0047616

> <Canonical_QSARr>
CCCCCC(=O)OC

> <InChI_Code_QSARr>
InChI=1S/C7H14O2/c1-3-4-5-6-7(8)9-2/h3-6H2,1-2H3

> <InChI Key_QSARr>
NUKZAGXMHTUAFE-UHFFFAOYSA-N

> <Salt_Solvent>
?

> <BP>
149.5

$$$$
100870
  -INDIGO-08031720192D

 22 24  0  0  0  0  0  0  0  0999 V2000
   -4.1569   -0.8000    0.0000 O   0  0  0  0  0  0  0  0  0  0  0  0
   -2.7712    0.0000    0.0000 C   0  0  0  0  0  0  0  0  0  0  0  0
   -3.5712    1.3857    0.0000 H   0  0  0  0  0  0  0  0  0  0  0  0
   -2.7712   -1.6000    0.0000 C   0  0  0  0  0  0  0  0  0  0  0  0
   -3.5712   -2.9856    0.0000 H   0  0  0  0  0  0  0  0  0  0  0  0
   -1.3856   -2.4000    0.0000 C   0  0  0  0  0  0  0  0  0  0  0  0
   -0.3572   -3.6257    0.0000 H   0  0  0  0  0  0  0  0  0  0  0  0
   -2.4141   -3.6257    0.0000 H   0  0  0  0  0  0  0  0  0  0  0  0
    0.0001   -1.6000    0.0000 C   0  0  0  0  0  0  0  0  0  0  0  0
    1.0285   -1.7813    0.0000 H   0  0  0  0  0  0  0  0  0  0  0  0
    0.5473   -3.1035    0.0000 H   0  0  0  0  0  0  0  0  0  0  0  0
    0.0001    0.0000    0.0000 C   0  0  0  0  0  0  0  0  0  0  0  0
    0.5473    1.5035    0.0000 H   0  0  0  0  0  0  0  0  0  0  0  0
   -1.3856    0.8000    0.0000 C   0  0  0  0  0  0  0  0  0  0  0  0
   -2.4141    2.0257    0.0000 H   0  0  0  0  0  0  0  0  0  0  0  0
   -0.3572    2.0257    0.0000 H   0  0  0  0  0  0  0  0  0  0  0  0
    1.5757   -0.2778    0.0000 C   0  0  0  0  0  0  0  0  0  0  0  0
    1.5757   -1.3221    0.0000 H   0  0  0  0  0  0  0  0  0  0  0  0
    2.8014    0.7506    0.0000 C   0  0  0  0  0  0  0  0  0  0  0  0
    2.0014    2.1363    0.0000 H   0  0  0  0  0  0  0  0  0  0  0  0
    4.3049    1.2978    0.0000 H   0  0  0  0  0  0  0  0  0  0  0  0
    3.0791   -0.8251    0.0000 O   0  0  0  0  0  0  0  0  0  0  0  0
  1  2  1  0  0  0  0
  2  3  1  0  0  0  0
  2  4  1  0  0  0  0
  4  1  1  0  0  0  0
  4  5  1  0  0  0  0
  4  6  1  0  0  0  0
  6  7  1  0  0  0  0
  6  8  1  0  0  0  0
  6  9  1  0  0  0  0
  9 10  1  0  0  0  0
  9 11  1  0  0  0  0
  9 12  1  0  0  0  0
 12 13  1  0  0  0  0
 12 14  1  0  0  0  0
 14  2  1  0  0  0  0
 14 15  1  0  0  0  0
 14 16  1  0  0  0  0
 12 17  1  0  0  0  0
 17 18  1  0  0  0  0
 17 19  1  0  0  0  0
 19 20  1  0  0  0  0
 19 21  1  0  0  0  0
 19 22  1  0  0  0  0
 22 17  1  0  0  0  0
M  END
> <ChemID>
100870

> <source_casrn>
106-87-6

> <CAS>
106-87-6

> <SMILES>
C1C2OC2CCC1C1CO1

> <NAME>
7-OXABICYCLO 4.1.0 HEPTANE, 3-OXIRANYL-

> <preferred_name>
4-Vinyl-1-cyclohexene dioxide

> <iupac>
3-(oxiran-2-yl)-7-oxabicyclo[4.1.0]heptane

> <MPID>
19939

> <dsstox_substance_id>
DTXSID0020604

> <Canonical_QSARr>
C1C2OC2CCC1C1CO1

> <InChI_Code_QSARr>
InChI=1S/C8H12O2/c1-2-6-7(10-6)3-5(1)8-4-9-8/h5-8H,1-4H2

> <InChI Key_QSARr>
OECTYKWYRCHAKR-UHFFFAOYSA-N

> <Salt_Solvent>
?

> <BP>
227.0

$$$$
100875
  -INDIGO-08031720192D

  8  7  0  0  0  0  0  0  0  0999 V2000
    0.8000    1.3856    0.0000 Br  0  0  0  0  0  0  0  0  0  0  0  0
    0.0000    0.0000    0.0000 C   0  0  0  0  0  0  0  0  0  0  0  0
    1.6000   -0.0000    0.0000 H   0  0  0  0  0  0  0  0  0  0  0  0
    0.8000   -1.3856    0.0000 H   0  0  0  0  0  0  0  0  0  0  0  0
   -1.6000    0.0000    0.0000 C   0  0  0  0  0  0  0  0  0  0  0  0
   -3.2000    0.0000    0.0000 H   0  0  0  0  0  0  0  0  0  0  0  0
   -2.4000   -1.3856    0.0000 H   0  0  0  0  0  0  0  0  0  0  0  0
   -2.4000    1.3856    0.0000 Br  0  0  0  0  0  0  0  0  0  0  0  0
  1  2  1  0  0  0  0
  2  3  1  0  0  0  0
  2  4  1  0  0  0  0
  2  5  1  0  0  0  0
  5  6  1  0  0  0  0
  5  7  1  0  0  0  0
  5  8  1  0  0  0  0
M  END
> <ChemID>
100875

> <source_casrn>
106-93-4

> <CAS>
106-93-4

> <SMILES>
BrCCBr

> <NAME>
1,2-DIBROMOETHANE

> <preferred_name>
1,2-Dibromoethane

> <iupac>
1,2-dibromoethane

> <MPID>
19943

> <dsstox_substance_id>
DTXSID3020415

> <Canonical_QSARr>
BrCCBr

> <InChI_Code_QSARr>
InChI=1S/C2H4Br2/c3-1-2-4/h1-2H2

> <InChI Key_QSARr>
PAAZPARNPHGIKF-UHFFFAOYSA-N

> <Salt_Solvent>
?

> <BP>
131.6

$$$$
100879
  -INDIGO-08031720192D

 14 13  0  0  0  0  0  0  0  0999 V2000
    0.0000    0.0000    0.0000 C   0  0  0  0  0  0  0  0  0  0  0  0
    0.6123    1.4782    0.0000 H   0  0  0  0  0  0  0  0  0  0  0  0
   -0.6123    1.4782    0.0000 H   0  0  0  0  0  0  0  0  0  0  0  0
   -1.3856   -0.8000    0.0000 C   0  0  0  0  0  0  0  0  0  0  0  0
   -1.9980   -2.2782    0.0000 H   0  0  0  0  0  0  0  0  0  0  0  0
   -0.7733   -2.2782    0.0000 H   0  0  0  0  0  0  0  0  0  0  0  0
   -2.7713    0.0000    0.0000 C   0  0  0  0  0  0  0  0  0  0  0  0
   -4.1569    0.8000    0.0000 H   0  0  0  0  0  0  0  0  0  0  0  0
   -4.1569   -0.8000    0.0000 H   0  0  0  0  0  0  0  0  0  0  0  0
   -2.7713    1.6000    0.0000 H   0  0  0  0  0  0  0  0  0  0  0  0
    1.3856   -0.8000    0.0000 C   0  0  0  0  0  0  0  0  0  0  0  0
    2.7713   -1.6000    0.0000 H   0  0  0  0  0  0  0  0  0  0  0  0
    2.7713    0.0000    0.0000 H   0  0  0  0  0  0  0  0  0  0  0  0
    1.3856   -2.4000    0.0000 H   0  0  0  0  0  0  0  0  0  0  0  0
  1  2  1  0  0  0  0
  1  3  1  0  0  0  0
  1  4  1  0  0  0  0
  4  5  1  0  0  0  0
  4  6  1  0  0  0  0
  4  7  1  0  0  0  0
  7  8  1  0  0  0  0
  7  9  1  0  0  0  0
  7 10  1  0  0  0  0
  1 11  1  0  0  0  0
 11 12  1  0  0  0  0
 11 13  1  0  0  0  0
 11 14  1  0  0  0  0
M  END
> <ChemID>
100879

> <source_casrn>
106-97-8

> <CAS>
106-97-8

> <SMILES>
CCCC

> <NAME>
N-BUTANE

> <preferred_name>
Butane

> <iupac>
C4H10

> <MPID>
19947

> <dsstox_substance_id>
DTXSID7024665

> <Canonical_QSARr>
CCCC

> <InChI_Code_QSARr>
InChI=1S/C4H10/c1-3-4-2/h3-4H2,1-2H3

> <InChI Key_QSARr>
IJDNQMDRQITEOD-UHFFFAOYSA-N

> <Salt_Solvent>
?

> <BP>
-0.5

$$$$
100884
  -INDIGO-08031720192D

  8  7  0  0  0  0  0  0  0  0999 V2000
    1.3856    0.8000    0.0000 C   0  0  0  0  0  0  0  0  0  0  0  0
    2.7713    0.0000    0.0000 H   0  0  0  0  0  0  0  0  0  0  0  0
    1.3856    2.4000    0.0000 H   0  0  0  0  0  0  0  0  0  0  0  0
    0.0000    0.0000    0.0000 C   0  0  0  0  0  0  0  0  0  0  0  0
    0.0000   -1.6000    0.0000 H   0  0  0  0  0  0  0  0  0  0  0  0
   -1.3856    0.8000    0.0000 C   0  0  0  0  0  0  0  0  0  0  0  0
   -2.7713    0.0000    0.0000 H   0  0  0  0  0  0  0  0  0  0  0  0
   -1.3856    2.4000    0.0000 O   0  0  0  0  0  0  0  0  0  0  0  0
  1  2  1  0  0  0  0
  1  3  1  0  0  0  0
  1  4  2  0  0  0  0
  4  5  1  0  0  0  0
  4  6  1  0  0  0  0
  6  7  1  0  0  0  0
  6  8  2  0  0  0  0
M  END
> <ChemID>
100884

> <source_casrn>
107-02-8

> <CAS>
107-02-8

> <SMILES>
C=CC=O

> <NAME>
ACROLEIN

> <preferred_name>
Acrolein

> <iupac>
prop-2-enal

> <MPID>
19951

> <dsstox_substance_id>
DTXSID5020023

> <Canonical_QSARr>
C=CC=O

> <InChI_Code_QSARr>
InChI=1S/C3H4O/c1-2-3-4/h2-3H,1H2

> <InChI Key_QSARr>
HGINCPLSRVDWNT-UHFFFAOYSA-N

> <Salt_Solvent>
?

> <BP>
52.6

$$$$
100888
  -INDIGO-08031720192D

  8  7  0  0  0  0  0  0  0  0999 V2000
    0.8000    1.3856    0.0000 Cl  0  0  0  0  0  0  0  0  0  0  0  0
    0.0000    0.0000    0.0000 C   0  0  0  0  0  0  0  0  0  0  0  0
    1.6000   -0.0000    0.0000 H   0  0  0  0  0  0  0  0  0  0  0  0
    0.8000   -1.3856    0.0000 H   0  0  0  0  0  0  0  0  0  0  0  0
   -1.6000    0.0000    0.0000 C   0  0  0  0  0  0  0  0  0  0  0  0
   -3.2000    0.0000    0.0000 H   0  0  0  0  0  0  0  0  0  0  0  0
   -2.4000   -1.3856    0.0000 H   0  0  0  0  0  0  0  0  0  0  0  0
   -2.4000    1.3856    0.0000 Cl  0  0  0  0  0  0  0  0  0  0  0  0
  1  2  1  0  0  0  0
  2  3  1  0  0  0  0
  2  4  1  0  0  0  0
  2  5  1  0  0  0  0
  5  6  1  0  0  0  0
  5  7  1  0  0  0  0
  5  8  1  0  0  0  0
M  END
> <ChemID>
100888

> <source_casrn>
107-06-2

> <CAS>
107-06-2

> <SMILES>
ClCCCl

> <NAME>
1,2-DICHLOROETHANE

> <preferred_name>
1,2-Dichloroethane

> <iupac>
C2H4Cl2

> <MPID>
19955

> <dsstox_substance_id>
DTXSID6020438

> <Canonical_QSARr>
ClCCCl

> <InChI_Code_QSARr>
InChI=1S/C2H4Cl2/c3-1-2-4/h1-2H2

> <InChI Key_QSARr>
WSLDOOZREJYCGB-UHFFFAOYSA-N

> <Salt_Solvent>
?

> <BP>
83.5

$$$$
100892
  -INDIGO-08031720192D

 11 10  0  0  0  0  0  0  0  0999 V2000
    1.3856    0.8000    0.0000 N   0  0  0  0  0  0  0  0  0  0  0  0
    2.7713    0.0000    0.0000 H   0  0  0  0  0  0  0  0  0  0  0  0
    1.3856    2.4000    0.0000 H   0  0  0  0  0  0  0  0  0  0  0  0
    0.0000    0.0000    0.0000 C   0  0  0  0  0  0  0  0  0  0  0  0
   -0.6123   -1.4782    0.0000 H   0  0  0  0  0  0  0  0  0  0  0  0
    0.6123   -1.4782    0.0000 H   0  0  0  0  0  0  0  0  0  0  0  0
   -1.3856    0.8000    0.0000 C   0  0  0  0  0  0  0  0  0  0  0  0
   -1.3856    2.4000    0.0000 H   0  0  0  0  0  0  0  0  0  0  0  0
   -2.7713    0.0000    0.0000 C   0  0  0  0  0  0  0  0  0  0  0  0
   -4.1569    0.8000    0.0000 H   0  0  0  0  0  0  0  0  0  0  0  0
   -2.7713   -1.6000    0.0000 H   0  0  0  0  0  0  0  0  0  0  0  0
  1  2  1  0  0  0  0
  1  3  1  0  0  0  0
  1  4  1  0  0  0  0
  4  5  1  0  0  0  0
  4  6  1  0  0  0  0
  4  7  1  0  0  0  0
  7  8  1  0  0  0  0
  7  9  2  0  0  0  0
  9 10  1  0  0  0  0
  9 11  1  0  0  0  0
M  END
> <ChemID>
100892

> <source_casrn>
107-11-9

> <CAS>
107-11-9

> <SMILES>
C=CCN

> <NAME>
ALLYLAMINE

> <preferred_name>
Allylamine

> <iupac>
C3H7N

> <MPID>
19959

> <dsstox_substance_id>
DTXSID8024440

> <Canonical_QSARr>
C=CCN

> <InChI_Code_QSARr>
InChI=1S/C3H7N/c1-2-3-4/h2H,1,3-4H2

> <InChI Key_QSARr>
VVJKKWFAADXIJK-UHFFFAOYSA-N

> <Salt_Solvent>
?

> <BP>
53.3

$$$$
100896
  -INDIGO-08031720192D

 12 11  0  0  0  0  0  0  0  0999 V2000
    1.3856   -0.8000    0.0000 N   0  0  0  0  0  0  0  0  0  0  0  0
    2.7713    0.0000    0.0000 H   0  0  0  0  0  0  0  0  0  0  0  0
    1.3856   -2.4000    0.0000 H   0  0  0  0  0  0  0  0  0  0  0  0
    0.0000    0.0000    0.0000 C   0  0  0  0  0  0  0  0  0  0  0  0
    0.6123    1.4782    0.0000 H   0  0  0  0  0  0  0  0  0  0  0  0
   -0.6123    1.4782    0.0000 H   0  0  0  0  0  0  0  0  0  0  0  0
   -1.3856   -0.8000    0.0000 C   0  0  0  0  0  0  0  0  0  0  0  0
   -1.9980   -2.2782    0.0000 H   0  0  0  0  0  0  0  0  0  0  0  0
   -0.7733   -2.2782    0.0000 H   0  0  0  0  0  0  0  0  0  0  0  0
   -2.7713    0.0000    0.0000 N   0  0  0  0  0  0  0  0  0  0  0  0
   -4.1569   -0.8000    0.0000 H   0  0  0  0  0  0  0  0  0  0  0  0
   -2.7713    1.6000    0.0000 H   0  0  0  0  0  0  0  0  0  0  0  0
  1  2  1  0  0  0  0
  1  3  1  0  0  0  0
  1  4  1  0  0  0  0
  4  5  1  0  0  0  0
  4  6  1  0  0  0  0
  4  7  1  0  0  0  0
  7  8  1  0  0  0  0
  7  9  1  0  0  0  0
  7 10  1  0  0  0  0
 10 11  1  0  0  0  0
 10 12  1  0  0  0  0
M  END
> <ChemID>
100896

> <source_casrn>
107-15-3

> <CAS>
107-15-3

> <SMILES>
NCCN

> <NAME>
1,2-DIAMINOETHANE

> <preferred_name>
Ethylenediamine

> <iupac>
ethane-1,2-diamine

> <MPID>
19963

> <dsstox_substance_id>
DTXSID5021881

> <Canonical_QSARr>
NCCN

> <InChI_Code_QSARr>
InChI=1S/C2H8N2/c3-1-2-4/h1-4H2

> <InChI Key_QSARr>
PIICEJLVQHRZGT-UHFFFAOYSA-N

> <Salt_Solvent>
?

> <BP>
117.0

$$$$
100900
  -INDIGO-08031720192D

  7  6  0  0  0  0  0  0  0  0999 V2000
    2.4000   -1.3856    0.0000 O   0  0  0  0  0  0  0  0  0  0  0  0
    1.6000    0.0000    0.0000 C   0  0  0  0  0  0  0  0  0  0  0  0
    2.4000    1.3856    0.0000 H   0  0  0  0  0  0  0  0  0  0  0  0
    0.0000    0.0000    0.0000 C   0  0  0  0  0  0  0  0  0  0  0  0
   -1.6000    0.0000    0.0000 H   0  0  0  0  0  0  0  0  0  0  0  0
   -0.8000    1.3856    0.0000 H   0  0  0  0  0  0  0  0  0  0  0  0
   -0.8000   -1.3856    0.0000 Cl  0  0  0  0  0  0  0  0  0  0  0  0
  1  2  2  0  0  0  0
  2  3  1  0  0  0  0
  2  4  1  0  0  0  0
  4  5  1  0  0  0  0
  4  6  1  0  0  0  0
  4  7  1  0  0  0  0
M  END
> <ChemID>
100900

> <source_casrn>
107-20-0

> <CAS>
107-20-0

> <SMILES>
O=CCCl

> <NAME>
CHLOROACETALDEHYDE

> <preferred_name>
Chloroacetaldehyde

> <iupac>
chloroacetaldehyde

> <MPID>
19967

> <dsstox_substance_id>
DTXSID4020292

> <Canonical_QSARr>
O=CCCl

> <InChI_Code_QSARr>
InChI=1S/C2H3ClO/c3-1-2-4/h2H,1H2

> <InChI Key_QSARr>
QSKPIOLLBIHNAC-UHFFFAOYSA-N

> <Salt_Solvent>
?

> <BP>
85.5

$$$$
100904
  -INDIGO-08031720192D

  9  8  0  0  0  0  0  0  0  0999 V2000
    0.8000    1.3856    0.0000 N   0  0  0  0  0  0  0  0  0  0  0  0
    2.4000    1.3856    0.0000 O   0  0  0  0  0  0  0  0  0  0  0  0
    0.0000    0.0000    0.0000 C   0  0  0  0  0  0  0  0  0  0  0  0
    0.2089   -1.5863    0.0000 H   0  0  0  0  0  0  0  0  0  0  0  0
    1.2694   -0.9740    0.0000 H   0  0  0  0  0  0  0  0  0  0  0  0
   -1.6000    0.0000    0.0000 C   0  0  0  0  0  0  0  0  0  0  0  0
   -3.2000    0.0000    0.0000 H   0  0  0  0  0  0  0  0  0  0  0  0
   -2.4000   -1.3856    0.0000 H   0  0  0  0  0  0  0  0  0  0  0  0
   -2.4000    1.3856    0.0000 H   0  0  0  0  0  0  0  0  0  0  0  0
  1  2  2  0  0  0  0
  1  3  1  0  0  0  0
  3  4  1  0  0  0  0
  3  5  1  0  0  0  0
  3  6  1  0  0  0  0
  6  7  1  0  0  0  0
  6  8  1  0  0  0  0
  6  9  1  0  0  0  0
M  END
> <ChemID>
100904

> <source_casrn>
107-29-9

> <CAS>
107-29-9

> <SMILES>
C/C=N/O

> <NAME>
ACETALDEHYDE OXIME

> <preferred_name>
Acetaldehyde oxime

> <iupac>
(1E)-N-hydroxyethanimine

> <MPID>
19971

> <dsstox_substance_id>
DTXSID2020004

> <Canonical_QSARr>
CCN=O

> <InChI_Code_QSARr>
InChI=1S/C2H5NO/c1-2-3-4/h2H2,1H3

> <InChI Key_QSARr>
IFYCAQIXDKZDTB-UHFFFAOYSA-N

> <Salt_Solvent>
?

> <BP>
115.0

$$$$
100908
  -INDIGO-08031720192D

 24 23  0  0  0  0  0  0  0  0999 V2000
   -3.7614    0.8635    0.0000 C   0  0  0  0  0  0  0  0  0  0  0  0
   -2.9614    2.2491    0.0000 H   0  0  0  0  0  0  0  0  0  0  0  0
   -5.3613    0.8635    0.0000 H   0  0  0  0  0  0  0  0  0  0  0  0
   -2.9614   -0.5222    0.0000 C   0  0  0  0  0  0  0  0  0  0  0  0
   -1.3856   -0.8000    0.0000 C   0  0  0  0  0  0  0  0  0  0  0  0
   -1.9980   -2.2782    0.0000 H   0  0  0  0  0  0  0  0  0  0  0  0
   -0.7733   -2.2782    0.0000 H   0  0  0  0  0  0  0  0  0  0  0  0
    0.0000   -0.0000    0.0000 C   0  0  0  0  0  0  0  0  0  0  0  0
    1.3857    0.8000    0.0000 C   0  0  0  0  0  0  0  0  0  0  0  0
    2.7713    1.6000    0.0000 H   0  0  0  0  0  0  0  0  0  0  0  0
    2.7713   -0.0000    0.0000 H   0  0  0  0  0  0  0  0  0  0  0  0
    1.3857    2.4000    0.0000 H   0  0  0  0  0  0  0  0  0  0  0  0
   -0.8000    1.3856    0.0000 C   0  0  0  0  0  0  0  0  0  0  0  0
   -1.5999    2.7713    0.0000 H   0  0  0  0  0  0  0  0  0  0  0  0
    0.0000    2.7713    0.0000 H   0  0  0  0  0  0  0  0  0  0  0  0
   -2.4000    1.3856    0.0000 H   0  0  0  0  0  0  0  0  0  0  0  0
    0.8000   -1.3856    0.0000 C   0  0  0  0  0  0  0  0  0  0  0  0
    1.6001   -2.7713    0.0000 H   0  0  0  0  0  0  0  0  0  0  0  0
    0.2528   -2.8892    0.0000 H   0  0  0  0  0  0  0  0  0  0  0  0
    2.4000   -1.3856    0.0000 H   0  0  0  0  0  0  0  0  0  0  0  0
   -3.9899   -1.7479    0.0000 C   0  0  0  0  0  0  0  0  0  0  0  0
   -5.0182   -2.9735    0.0000 H   0  0  0  0  0  0  0  0  0  0  0  0
   -5.5655   -1.4700    0.0000 H   0  0  0  0  0  0  0  0  0  0  0  0
   -3.4426   -3.2513    0.0000 H   0  0  0  0  0  0  0  0  0  0  0  0
  1  2  1  0  0  0  0
  1  3  1  0  0  0  0
  1  4  2  0  0  0  0
  4  5  1  0  0  0  0
  5  6  1  0  0  0  0
  5  7  1  0  0  0  0
  5  8  1  0  0  0  0
  8  9  1  0  0  0  0
  9 10  1  0  0  0  0
  9 11  1  0  0  0  0
  9 12  1  0  0  0  0
  8 13  1  0  0  0  0
 13 14  1  0  0  0  0
 13 15  1  0  0  0  0
 13 16  1  0  0  0  0
  8 17  1  0  0  0  0
 17 18  1  0  0  0  0
 17 19  1  0  0  0  0
 17 20  1  0  0  0  0
  4 21  1  0  0  0  0
 21 22  1  0  0  0  0
 21 23  1  0  0  0  0
 21 24  1  0  0  0  0
M  END
> <ChemID>
100908

> <source_casrn>
107-39-1|25167-70-8

> <CAS>
107-39-1

> <SMILES>
CC(=C)CC(C)(C)C

> <NAME>
2,4,4-TRIMETHYL-1-PENTENE, 2,4,4-TRIMETHYLPENTENE

> <preferred_name>
2,4,4-Trimethyl-1-pentene

> <iupac>
2,4,4-trimethylpent-1-ene

> <MPID>
19975|24449

> <dsstox_substance_id>
DTXSID4026765

> <Canonical_QSARr>
CC(=C)CC(C)(C)C

> <InChI_Code_QSARr>
InChI=1S/C8H16/c1-7(2)6-8(3,4)5/h1,6H2,2-5H3

> <InChI Key_QSARr>
FXNDIJDIPNCZQJ-UHFFFAOYSA-N

> <Salt_Solvent>
?

> <BP>
101.2

$$$$
100912
  -INDIGO-08031720192D

 28 27  0  0  0  0  0  0  0  0999 V2000
    0.8000   -1.3856    0.0000 C   0  0  0  0  0  0  0  0  0  0  0  0
    1.6000   -2.7713    0.0000 H   0  0  0  0  0  0  0  0  0  0  0  0
    0.0000   -2.7713    0.0000 H   0  0  0  0  0  0  0  0  0  0  0  0
    2.3999   -1.3856    0.0000 H   0  0  0  0  0  0  0  0  0  0  0  0
    0.0000   -0.0000    0.0000 C   0  0  0  0  0  0  0  0  0  0  0  0
    1.3857    0.8000    0.0000 C   0  0  0  0  0  0  0  0  0  0  0  0
    2.7713    1.6000    0.0000 H   0  0  0  0  0  0  0  0  0  0  0  0
    2.7713   -0.0000    0.0000 H   0  0  0  0  0  0  0  0  0  0  0  0
    1.3857    2.4000    0.0000 H   0  0  0  0  0  0  0  0  0  0  0  0
   -0.8000    1.3857    0.0000 C   0  0  0  0  0  0  0  0  0  0  0  0
   -1.3472    2.8891    0.0000 H   0  0  0  0  0  0  0  0  0  0  0  0
    0.0000    2.7713    0.0000 H   0  0  0  0  0  0  0  0  0  0  0  0
    0.8000    1.3857    0.0000 H   0  0  0  0  0  0  0  0  0  0  0  0
   -1.3856   -0.8000    0.0000 C   0  0  0  0  0  0  0  0  0  0  0  0
   -1.9979   -2.2782    0.0000 H   0  0  0  0  0  0  0  0  0  0  0  0
   -0.7733   -2.2782    0.0000 H   0  0  0  0  0  0  0  0  0  0  0  0
   -2.7712   -0.0000    0.0000 C   0  0  0  0  0  0  0  0  0  0  0  0
   -3.9969    1.0284    0.0000 C   0  0  0  0  0  0  0  0  0  0  0  0
   -5.2227    2.0569    0.0000 H   0  0  0  0  0  0  0  0  0  0  0  0
   -5.5005    0.4813    0.0000 H   0  0  0  0  0  0  0  0  0  0  0  0
   -3.7191    2.6041    0.0000 H   0  0  0  0  0  0  0  0  0  0  0  0
   -3.7998   -1.2256    0.0000 C   0  0  0  0  0  0  0  0  0  0  0  0
   -4.8282   -2.4514    0.0000 H   0  0  0  0  0  0  0  0  0  0  0  0
   -3.2525   -2.7292    0.0000 H   0  0  0  0  0  0  0  0  0  0  0  0
   -5.3754   -0.9479    0.0000 H   0  0  0  0  0  0  0  0  0  0  0  0
   -1.7428    1.2257    0.0000 N   0  0  0  0  0  0  0  0  0  0  0  0
   -2.2901    2.7292    0.0000 H   0  0  0  0  0  0  0  0  0  0  0  0
   -0.1671    0.9478    0.0000 H   0  0  0  0  0  0  0  0  0  0  0  0
  1  2  1  0  0  0  0
  1  3  1  0  0  0  0
  1  4  1  0  0  0  0
  1  5  1  0  0  0  0
  5  6  1  0  0  0  0
  6  7  1  0  0  0  0
  6  8  1  0  0  0  0
  6  9  1  0  0  0  0
  5 10  1  0  0  0  0
 10 11  1  0  0  0  0
 10 12  1  0  0  0  0
 10 13  1  0  0  0  0
  5 14  1  0  0  0  0
 14 15  1  0  0  0  0
 14 16  1  0  0  0  0
 14 17  1  0  0  0  0
 17 18  1  0  0  0  0
 18 19  1  0  0  0  0
 18 20  1  0  0  0  0
 18 21  1  0  0  0  0
 17 22  1  0  0  0  0
 22 23  1  0  0  0  0
 22 24  1  0  0  0  0
 22 25  1  0  0  0  0
 17 26  1  0  0  0  0
 26 27  1  0  0  0  0
 26 28  1  0  0  0  0
M  END
> <ChemID>
100912

> <source_casrn>
107-45-9

> <CAS>
107-45-9

> <SMILES>
CC(C)(C)CC(C)(C)N

> <NAME>
2-Pentanamine, 2,4,4-trimethyl-

> <preferred_name>
2,4,4-Trimethyl-2-pentanamine

> <iupac>
2,4,4-trimethylpentan-2-amine

> <MPID>
19979

> <dsstox_substance_id>
DTXSID0021886

> <Canonical_QSARr>
CC(C)(C)CC(C)(C)N

> <InChI_Code_QSARr>
InChI=1S/C8H19N/c1-7(2,3)6-8(4,5)9/h6,9H2,1-5H3

> <InChI Key_QSARr>
QIJIUJYANDSEKG-UHFFFAOYSA-N

> <Salt_Solvent>
?

> <BP>
140.0

$$$$
100916
  -INDIGO-08031720192D

 37 36  0  0  0  0  0  0  0  0999 V2000
   -0.0000   -0.0000    0.0000 Si  0  0  0  0  0  0  0  0  0  0  0  0
    1.3857   -0.8000    0.0000 O   0  0  0  0  0  0  0  0  0  0  0  0
    2.7712   -0.0000    0.0000 Si  0  0  0  0  0  0  0  0  0  0  0  0
    4.2747    0.5473    0.0000 O   0  0  0  0  0  0  0  0  0  0  0  0
    5.7784   -0.0000    0.0000 Si  0  0  0  0  0  0  0  0  0  0  0  0
    7.3782   -0.0000    0.0000 C   0  0  0  0  0  0  0  0  0  0  0  0
    8.9783   -0.0000    0.0000 H   0  0  0  0  0  0  0  0  0  0  0  0
    8.1784    1.3857    0.0000 H   0  0  0  0  0  0  0  0  0  0  0  0
    8.1784   -1.3857    0.0000 H   0  0  0  0  0  0  0  0  0  0  0  0
    6.0562    1.5757    0.0000 C   0  0  0  0  0  0  0  0  0  0  0  0
    6.3340    3.1514    0.0000 H   0  0  0  0  0  0  0  0  0  0  0  0
    4.8305    2.6042    0.0000 H   0  0  0  0  0  0  0  0  0  0  0  0
    7.5597    2.1229    0.0000 H   0  0  0  0  0  0  0  0  0  0  0  0
    5.5004   -1.5757    0.0000 C   0  0  0  0  0  0  0  0  0  0  0  0
    6.7261   -2.6041    0.0000 H   0  0  0  0  0  0  0  0  0  0  0  0
    7.0039   -1.0284    0.0000 H   0  0  0  0  0  0  0  0  0  0  0  0
    4.2747   -0.5473    0.0000 H   0  0  0  0  0  0  0  0  0  0  0  0
    3.0492   -1.5757    0.0000 C   0  0  0  0  0  0  0  0  0  0  0  0
    3.0492   -3.1757    0.0000 H   0  0  0  0  0  0  0  0  0  0  0  0
    1.6635   -2.3757    0.0000 H   0  0  0  0  0  0  0  0  0  0  0  0
    4.4347   -2.3757    0.0000 H   0  0  0  0  0  0  0  0  0  0  0  0
    2.2240    1.5036    0.0000 C   0  0  0  0  0  0  0  0  0  0  0  0
    3.2526    2.7292    0.0000 H   0  0  0  0  0  0  0  0  0  0  0  0
    3.8241    1.5036    0.0000 H   0  0  0  0  0  0  0  0  0  0  0  0
    1.1957    0.2778    0.0000 H   0  0  0  0  0  0  0  0  0  0  0  0
   -1.5035    0.5473    0.0000 C   0  0  0  0  0  0  0  0  0  0  0  0
   -3.0070    1.0945    0.0000 H   0  0  0  0  0  0  0  0  0  0  0  0
   -2.7292   -0.4812    0.0000 H   0  0  0  0  0  0  0  0  0  0  0  0
   -1.7813    2.1229    0.0000 H   0  0  0  0  0  0  0  0  0  0  0  0
    0.8001    1.3857    0.0000 C   0  0  0  0  0  0  0  0  0  0  0  0
    1.6000    2.7713    0.0000 H   0  0  0  0  0  0  0  0  0  0  0  0
   -0.0000    2.7713    0.0000 H   0  0  0  0  0  0  0  0  0  0  0  0
   -0.8000    1.3857    0.0000 H   0  0  0  0  0  0  0  0  0  0  0  0
   -0.8000   -1.3857    0.0000 C   0  0  0  0  0  0  0  0  0  0  0  0
   -1.6001   -2.7713    0.0000 H   0  0  0  0  0  0  0  0  0  0  0  0
   -0.0000   -2.7713    0.0000 H   0  0  0  0  0  0  0  0  0  0  0  0
   -2.4000   -1.3857    0.0000 H   0  0  0  0  0  0  0  0  0  0  0  0
  1  2  1  0  0  0  0
  2  3  1  0  0  0  0
  3  4  1  0  0  0  0
  4  5  1  0  0  0  0
  5  6  1  0  0  0  0
  6  7  1  0  0  0  0
  6  8  1  0  0  0  0
  6  9  1  0  0  0  0
  5 10  1  0  0  0  0
 10 11  1  0  0  0  0
 10 12  1  0  0  0  0
 10 13  1  0  0  0  0
  5 14  1  0  0  0  0
 14 15  1  0  0  0  0
 14 16  1  0  0  0  0
 14 17  1  0  0  0  0
  3 18  1  0  0  0  0
 18 19  1  0  0  0  0
 18 20  1  0  0  0  0
 18 21  1  0  0  0  0
  3 22  1  0  0  0  0
 22 23  1  0  0  0  0
 22 24  1  0  0  0  0
 22 25  1  0  0  0  0
  1 26  1  0  0  0  0
 26 27  1  0  0  0  0
 26 28  1  0  0  0  0
 26 29  1  0  0  0  0
  1 30  1  0  0  0  0
 30 31  1  0  0  0  0
 30 32  1  0  0  0  0
 30 33  1  0  0  0  0
  1 34  1  0  0  0  0
 34 35  1  0  0  0  0
 34 36  1  0  0  0  0
 34 37  1  0  0  0  0
M  END
> <ChemID>
100916

> <source_casrn>
107-51-7

> <CAS>
107-51-7

> <SMILES>
C[Si](C)(O[Si](C)(C)C)O[Si](C)(C)C

> <NAME>
OCTAMETHYLTRISILOXANE

> <preferred_name>
Octamethyltrisiloxane

> <iupac>
octamethyltrisiloxane

> <MPID>
19983

> <dsstox_substance_id>
DTXSID9040710

> <Canonical_QSARr>
C[Si](C)(O[Si](C)(C)C)O[Si](C)(C)C

> <InChI_Code_QSARr>
InChI=1S/C8H24O2Si3/c1-11(2,3)9-13(7,8)10-12(4,5)6/h1-8H3

> <InChI Key_QSARr>
CXQXSVUQTKDNFP-UHFFFAOYSA-N

> <Salt_Solvent>
?

> <BP>
153.0

$$$$
100920
  -INDIGO-08031720192D

 23 22  0  0  0  0  0  0  0  0999 V2000
   -1.3856    0.8000    0.0000 C   0  0  0  0  0  0  0  0  0  0  0  0
   -0.7733    2.2782    0.0000 H   0  0  0  0  0  0  0  0  0  0  0  0
   -1.9979    2.2782    0.0000 H   0  0  0  0  0  0  0  0  0  0  0  0
   -2.7713   -0.0000    0.0000 C   0  0  0  0  0  0  0  0  0  0  0  0
   -4.1569    0.8000    0.0000 C   0  0  0  0  0  0  0  0  0  0  0  0
   -5.5426    1.6000    0.0000 H   0  0  0  0  0  0  0  0  0  0  0  0
   -5.5426   -0.0000    0.0000 H   0  0  0  0  0  0  0  0  0  0  0  0
   -4.1569    2.4000    0.0000 H   0  0  0  0  0  0  0  0  0  0  0  0
   -2.7713   -1.6000    0.0000 O   0  0  0  0  0  0  0  0  0  0  0  0
    0.0000   -0.0000    0.0000 C   0  0  0  0  0  0  0  0  0  0  0  0
    1.3857   -0.8001    0.0000 C   0  0  0  0  0  0  0  0  0  0  0  0
    2.7713   -1.6000    0.0000 H   0  0  0  0  0  0  0  0  0  0  0  0
    2.7713   -0.0000    0.0000 H   0  0  0  0  0  0  0  0  0  0  0  0
    1.3857   -2.4000    0.0000 H   0  0  0  0  0  0  0  0  0  0  0  0
    0.8000    1.3856    0.0000 C   0  0  0  0  0  0  0  0  0  0  0  0
    1.6000    2.7713    0.0000 H   0  0  0  0  0  0  0  0  0  0  0  0
    0.2527    2.8891    0.0000 H   0  0  0  0  0  0  0  0  0  0  0  0
    2.4000    1.3856    0.0000 H   0  0  0  0  0  0  0  0  0  0  0  0
   -0.8000   -1.3857    0.0000 O   0  0  0  0  0  0  0  0  0  0  0  0
    0.0000   -2.7713    0.0000 C   0  0  0  0  0  0  0  0  0  0  0  0
   -0.8000   -4.1569    0.0000 H   0  0  0  0  0  0  0  0  0  0  0  0
    0.8000   -4.1569    0.0000 H   0  0  0  0  0  0  0  0  0  0  0  0
   -1.6000   -2.7713    0.0000 H   0  0  0  0  0  0  0  0  0  0  0  0
  1  2  1  0  0  0  0
  1  3  1  0  0  0  0
  1  4  1  0  0  0  0
  4  5  1  0  0  0  0
  5  6  1  0  0  0  0
  5  7  1  0  0  0  0
  5  8  1  0  0  0  0
  4  9  2  0  0  0  0
  1 10  1  0  0  0  0
 10 11  1  0  0  0  0
 11 12  1  0  0  0  0
 11 13  1  0  0  0  0
 11 14  1  0  0  0  0
 10 15  1  0  0  0  0
 15 16  1  0  0  0  0
 15 17  1  0  0  0  0
 15 18  1  0  0  0  0
 10 19  1  0  0  0  0
 19 20  1  0  0  0  0
 20 21  1  0  0  0  0
 20 22  1  0  0  0  0
 20 23  1  0  0  0  0
M  END
> <ChemID>
100920

> <source_casrn>
107-70-0

> <CAS>
107-70-0

> <SMILES>
COC(C)(C)CC(C)=O

> <NAME>
4-METHOXY-4-METHYL-2-PENTANONE

> <preferred_name>
4-Methoxy-4-methyl-2-pentanone

> <iupac>
4-methoxy-4-methylpentan-2-one

> <MPID>
19987

> <dsstox_substance_id>
DTXSID2025557

> <Canonical_QSARr>
COC(C)(C)CC(C)=O

> <InChI_Code_QSARr>
InChI=1S/C7H14O2/c1-6(8)5-7(2,3)9-4/h5H2,1-4H3

> <InChI Key_QSARr>
KOKPBCHLPVDQTK-UHFFFAOYSA-N

> <Salt_Solvent>
?

> <BP>
160.0

$$$$
100924
  -INDIGO-08031720192D

 14 13  0  0  0  0  0  0  0  0999 V2000
    1.3856   -0.8000    0.0000 C   0  0  0  0  0  0  0  0  0  0  0  0
    2.7713   -1.6000    0.0000 H   0  0  0  0  0  0  0  0  0  0  0  0
    2.7713    0.0000    0.0000 H   0  0  0  0  0  0  0  0  0  0  0  0
    0.0000    0.0000    0.0000 C   0  0  0  0  0  0  0  0  0  0  0  0
    0.6123    1.4782    0.0000 H   0  0  0  0  0  0  0  0  0  0  0  0
   -0.6123    1.4782    0.0000 H   0  0  0  0  0  0  0  0  0  0  0  0
   -1.3856   -0.8000    0.0000 C   0  0  0  0  0  0  0  0  0  0  0  0
   -1.9980   -2.2782    0.0000 H   0  0  0  0  0  0  0  0  0  0  0  0
   -2.7713    0.0000    0.0000 C   0  0  0  0  0  0  0  0  0  0  0  0
   -4.1569    0.8000    0.0000 H   0  0  0  0  0  0  0  0  0  0  0  0
   -4.1569   -0.8000    0.0000 H   0  0  0  0  0  0  0  0  0  0  0  0
   -2.7713    1.6000    0.0000 H   0  0  0  0  0  0  0  0  0  0  0  0
   -0.7733   -2.2782    0.0000 Br  0  0  0  0  0  0  0  0  0  0  0  0
    1.3856   -2.4000    0.0000 Br  0  0  0  0  0  0  0  0  0  0  0  0
  1  2  1  0  0  0  0
  1  3  1  0  0  0  0
  1  4  1  0  0  0  0
  4  5  1  0  0  0  0
  4  6  1  0  0  0  0
  4  7  1  0  0  0  0
  7  8  1  0  0  0  0
  7  9  1  0  0  0  0
  9 10  1  0  0  0  0
  9 11  1  0  0  0  0
  9 12  1  0  0  0  0
  7 13  1  0  0  0  0
  1 14  1  0  0  0  0
M  END
> <ChemID>
100924

> <source_casrn>
107-80-2

> <CAS>
NOCAS_870455

> <SMILES>
CC(Br)CCBr

> <NAME>
Butane, 1,3-dibromo-

> <preferred_name>


> <iupac>


> <MPID>
19991

> <dsstox_substance_id>
DTXSID30870455

> <Canonical_QSARr>
CC(Br)CCBr

> <InChI_Code_QSARr>
InChI=1S/C4H8Br2/c1-4(6)2-3-5/h4H,2-3H2,1H3

> <InChI Key_QSARr>
XZNGUVQDFJHPLU-UHFFFAOYSA-N

> <Salt_Solvent>
?

> <BP>
174.0

$$$$
100928
  -INDIGO-08031720192D

 17 16  0  0  0  0  0  0  0  0999 V2000
   -1.5036    0.5472    0.0000 C   0  0  0  0  0  0  0  0  0  0  0  0
   -1.1572    2.1093    0.0000 H   0  0  0  0  0  0  0  0  0  0  0  0
   -2.3631    1.8967    0.0000 H   0  0  0  0  0  0  0  0  0  0  0  0
    0.0000    0.0000    0.0000 C   0  0  0  0  0  0  0  0  0  0  0  0
   -0.8000   -1.3856    0.0000 H   0  0  0  0  0  0  0  0  0  0  0  0
    1.3857   -0.8000    0.0000 C   0  0  0  0  0  0  0  0  0  0  0  0
    2.7713   -1.6000    0.0000 H   0  0  0  0  0  0  0  0  0  0  0  0
    1.3857   -2.4000    0.0000 H   0  0  0  0  0  0  0  0  0  0  0  0
    2.7713    0.0000    0.0000 H   0  0  0  0  0  0  0  0  0  0  0  0
    0.8000    1.3856    0.0000 C   0  0  0  0  0  0  0  0  0  0  0  0
    1.6001    2.7713    0.0000 H   0  0  0  0  0  0  0  0  0  0  0  0
    0.0000    2.7713    0.0000 H   0  0  0  0  0  0  0  0  0  0  0  0
    2.4000    1.3856    0.0000 H   0  0  0  0  0  0  0  0  0  0  0  0
   -2.7292   -0.4813    0.0000 C   0  0  0  0  0  0  0  0  0  0  0  0
   -3.9548   -1.5097    0.0000 H   0  0  0  0  0  0  0  0  0  0  0  0
   -4.2327    0.0660    0.0000 H   0  0  0  0  0  0  0  0  0  0  0  0
   -2.4513   -2.0569    0.0000 Cl  0  0  0  0  0  0  0  0  0  0  0  0
  1  2  1  0  0  0  0
  1  3  1  0  0  0  0
  1  4  1  0  0  0  0
  4  5  1  0  0  0  0
  4  6  1  0  0  0  0
  6  7  1  0  0  0  0
  6  8  1  0  0  0  0
  6  9  1  0  0  0  0
  4 10  1  0  0  0  0
 10 11  1  0  0  0  0
 10 12  1  0  0  0  0
 10 13  1  0  0  0  0
  1 14  1  0  0  0  0
 14 15  1  0  0  0  0
 14 16  1  0  0  0  0
 14 17  1  0  0  0  0
M  END
> <ChemID>
100928

> <source_casrn>
107-84-6

> <CAS>
107-84-6

> <SMILES>
CC(C)CCCl

> <NAME>
Butane, 1-chloro-3-methyl-

> <preferred_name>
Butane, 1-chloro-3-methyl-

> <iupac>
1-Chloro-3-methylbutane

> <MPID>
19995

> <dsstox_substance_id>
DTXSID2059354

> <Canonical_QSARr>
CC(C)CCCl

> <InChI_Code_QSARr>
InChI=1S/C5H11Cl/c1-5(2)3-4-6/h5H,3-4H2,1-2H3

> <InChI Key_QSARr>
CZHLPWNZCJEPJB-UHFFFAOYSA-N

> <Salt_Solvent>
?

> <BP>
98.9

$$$$
100932
  -INDIGO-08031720192D

 16 15  0  0  0  0  0  0  0  0999 V2000
    2.7713    0.0000    0.0000 C   0  0  0  0  0  0  0  0  0  0  0  0
    3.3835   -1.4782    0.0000 H   0  0  0  0  0  0  0  0  0  0  0  0
    2.1590   -1.4782    0.0000 H   0  0  0  0  0  0  0  0  0  0  0  0
    1.3857    0.8000    0.0000 C   0  0  0  0  0  0  0  0  0  0  0  0
    0.7733    2.2782    0.0000 H   0  0  0  0  0  0  0  0  0  0  0  0
    1.9979    2.2782    0.0000 H   0  0  0  0  0  0  0  0  0  0  0  0
    0.0000    0.0000    0.0000 C   0  0  0  0  0  0  0  0  0  0  0  0
    0.8000   -1.3856    0.0000 H   0  0  0  0  0  0  0  0  0  0  0  0
   -1.3856   -0.8000    0.0000 C   0  0  0  0  0  0  0  0  0  0  0  0
   -2.7713   -1.6000    0.0000 H   0  0  0  0  0  0  0  0  0  0  0  0
   -2.7713    0.0000    0.0000 H   0  0  0  0  0  0  0  0  0  0  0  0
   -1.3856   -2.4000    0.0000 H   0  0  0  0  0  0  0  0  0  0  0  0
   -0.8000    1.3856    0.0000 O   0  0  0  0  0  0  0  0  0  0  0  0
   -2.4000    1.3856    0.0000 H   0  0  0  0  0  0  0  0  0  0  0  0
    4.1570    0.8000    0.0000 O   0  0  0  0  0  0  0  0  0  0  0  0
    5.5426    0.0000    0.0000 H   0  0  0  0  0  0  0  0  0  0  0  0
  1  2  1  0  0  0  0
  1  3  1  0  0  0  0
  1  4  1  0  0  0  0
  4  5  1  0  0  0  0
  4  6  1  0  0  0  0
  4  7  1  0  0  0  0
  7  8  1  0  0  0  0
  7  9  1  0  0  0  0
  9 10  1  0  0  0  0
  9 11  1  0  0  0  0
  9 12  1  0  0  0  0
  7 13  1  0  0  0  0
 13 14  1  0  0  0  0
  1 15  1  0  0  0  0
 15 16  1  0  0  0  0
M  END
> <ChemID>
100932

> <source_casrn>
107-88-0

> <CAS>
107-88-0

> <SMILES>
CC(O)CCO

> <NAME>
1,3-BUTANEDIOL

> <preferred_name>
1,3-Butanediol

> <iupac>
butane-1,3-diol

> <MPID>
19999

> <dsstox_substance_id>
DTXSID8026773

> <Canonical_QSARr>
CC(O)CCO

> <InChI_Code_QSARr>
InChI=1S/C4H10O2/c1-4(6)2-3-5/h4-6H,2-3H2,1H3

> <InChI Key_QSARr>
PUPZLCDOIYMWBV-UHFFFAOYSA-N

> <Salt_Solvent>
?

> <BP>
207.5

$$$$
100936
  -INDIGO-08031720192D

 16 15  0  0  0  0  0  0  0  0999 V2000
    0.8000    1.3857    0.0000 O   0  0  0  0  0  0  0  0  0  0  0  0
    2.4000    1.3857    0.0000 H   0  0  0  0  0  0  0  0  0  0  0  0
    0.0000    0.0000    0.0000 C   0  0  0  0  0  0  0  0  0  0  0  0
   -0.8000   -1.3857    0.0000 H   0  0  0  0  0  0  0  0  0  0  0  0
   -1.3856    0.8000    0.0000 C   0  0  0  0  0  0  0  0  0  0  0  0
   -0.7733    2.2782    0.0000 H   0  0  0  0  0  0  0  0  0  0  0  0
   -1.9979    2.2782    0.0000 H   0  0  0  0  0  0  0  0  0  0  0  0
   -2.7713    0.0000    0.0000 O   0  0  0  0  0  0  0  0  0  0  0  0
   -4.1569    0.8000    0.0000 C   0  0  0  0  0  0  0  0  0  0  0  0
   -5.5426    1.6000    0.0000 H   0  0  0  0  0  0  0  0  0  0  0  0
   -5.5426    0.0000    0.0000 H   0  0  0  0  0  0  0  0  0  0  0  0
   -4.1569    2.4000    0.0000 H   0  0  0  0  0  0  0  0  0  0  0  0
    1.3857   -0.8000    0.0000 C   0  0  0  0  0  0  0  0  0  0  0  0
    2.7713   -1.6000    0.0000 H   0  0  0  0  0  0  0  0  0  0  0  0
    2.7713    0.0000    0.0000 H   0  0  0  0  0  0  0  0  0  0  0  0
    1.3857   -2.4000    0.0000 H   0  0  0  0  0  0  0  0  0  0  0  0
  1  2  1  0  0  0  0
  1  3  1  0  0  0  0
  3  4  1  0  0  0  0
  3  5  1  0  0  0  0
  5  6  1  0  0  0  0
  5  7  1  0  0  0  0
  5  8  1  0  0  0  0
  8  9  1  0  0  0  0
  9 10  1  0  0  0  0
  9 11  1  0  0  0  0
  9 12  1  0  0  0  0
  3 13  1  0  0  0  0
 13 14  1  0  0  0  0
 13 15  1  0  0  0  0
 13 16  1  0  0  0  0
M  END
> <ChemID>
100936

> <source_casrn>
107-98-2

> <CAS>
107-98-2

> <SMILES>
COCC(C)O

> <NAME>
1-METHOXY-2-PROPANOL

> <preferred_name>
1-Methoxy-2-propanol

> <iupac>
1-methoxypropan-2-ol

> <MPID>
20003

> <dsstox_substance_id>
DTXSID8024284

> <Canonical_QSARr>
COCC(C)O

> <InChI_Code_QSARr>
InChI=1S/C4H10O2/c1-4(5)3-6-2/h4-5H,3H2,1-2H3

> <InChI Key_QSARr>
ARXJGSRGQADJSQ-UHFFFAOYSA-N

> <Salt_Solvent>
?

> <BP>
119.0

$$$$
100940
  -INDIGO-08031720192D

 13 12  0  0  0  0  0  0  0  0999 V2000
   -2.7713   -1.6000    0.0000 O   0  0  0  0  0  0  0  0  0  0  0  0
   -2.7713    0.0000    0.0000 N   0  0  0  0  0  0  0  0  0  0  0  0
   -1.3856    0.8000    0.0000 C   0  0  0  0  0  0  0  0  0  0  0  0
   -0.7733    2.2782    0.0000 H   0  0  0  0  0  0  0  0  0  0  0  0
   -1.9980    2.2782    0.0000 H   0  0  0  0  0  0  0  0  0  0  0  0
    0.0000    0.0000    0.0000 C   0  0  0  0  0  0  0  0  0  0  0  0
   -0.6123   -1.4782    0.0000 H   0  0  0  0  0  0  0  0  0  0  0  0
    0.6123   -1.4782    0.0000 H   0  0  0  0  0  0  0  0  0  0  0  0
    1.3856    0.8000    0.0000 C   0  0  0  0  0  0  0  0  0  0  0  0
    2.7713    1.6000    0.0000 H   0  0  0  0  0  0  0  0  0  0  0  0
    2.7713    0.0000    0.0000 H   0  0  0  0  0  0  0  0  0  0  0  0
    1.3856    2.4000    0.0000 H   0  0  0  0  0  0  0  0  0  0  0  0
   -4.1569    0.8000    0.0000 O   0  0  0  0  0  0  0  0  0  0  0  0
  1  2  2  0  0  0  0
  2  3  1  0  0  0  0
  3  4  1  0  0  0  0
  3  5  1  0  0  0  0
  3  6  1  0  0  0  0
  6  7  1  0  0  0  0
  6  8  1  0  0  0  0
  6  9  1  0  0  0  0
  9 10  1  0  0  0  0
  9 11  1  0  0  0  0
  9 12  1  0  0  0  0
  2 13  1  0  0  0  0
M  CHG  2   2   1  13  -1
M  END
> <ChemID>
100940

> <source_casrn>
108-03-2

> <CAS>
108-03-2

> <SMILES>
CCC[N+]([O-])=O

> <NAME>
1-NITROPROPANE

> <preferred_name>
1-Nitropropane

> <iupac>
1-nitropropane

> <MPID>
20007

> <dsstox_substance_id>
DTXSID1020980

> <Canonical_QSARr>
CCC[N+]([O-])=O

> <InChI_Code_QSARr>
InChI=1S/C3H7NO2/c1-2-3-4(5)6/h2-3H2,1H3

> <InChI Key_QSARr>
JSZOAYXJRCEYSX-UHFFFAOYSA-N

> <Salt_Solvent>
?

> <BP>
131.1

$$$$
100944
  -INDIGO-08031720192D

 19 18  0  0  0  0  0  0  0  0999 V2000
    4.2327    0.0660    0.0000 C   0  0  0  0  0  0  0  0  0  0  0  0
    5.7362    0.6132    0.0000 H   0  0  0  0  0  0  0  0  0  0  0  0
    5.4584   -0.9624    0.0000 H   0  0  0  0  0  0  0  0  0  0  0  0
    4.5105    1.6417    0.0000 H   0  0  0  0  0  0  0  0  0  0  0  0
    2.7291   -0.4813    0.0000 C   0  0  0  0  0  0  0  0  0  0  0  0
    2.4513   -2.0569    0.0000 O   0  0  0  0  0  0  0  0  0  0  0  0
    1.5036    0.5472    0.0000 C   0  0  0  0  0  0  0  0  0  0  0  0
    1.1572    2.1093    0.0000 H   0  0  0  0  0  0  0  0  0  0  0  0
    2.3632    1.8967    0.0000 H   0  0  0  0  0  0  0  0  0  0  0  0
    0.0000    0.0000    0.0000 C   0  0  0  0  0  0  0  0  0  0  0  0
    0.8000   -1.3856    0.0000 H   0  0  0  0  0  0  0  0  0  0  0  0
   -1.3856   -0.8000    0.0000 C   0  0  0  0  0  0  0  0  0  0  0  0
   -2.7713   -1.6000    0.0000 H   0  0  0  0  0  0  0  0  0  0  0  0
   -1.3856   -2.4000    0.0000 H   0  0  0  0  0  0  0  0  0  0  0  0
   -2.7713    0.0000    0.0000 H   0  0  0  0  0  0  0  0  0  0  0  0
   -0.8000    1.3856    0.0000 C   0  0  0  0  0  0  0  0  0  0  0  0
   -1.6000    2.7713    0.0000 H   0  0  0  0  0  0  0  0  0  0  0  0
    0.0000    2.7713    0.0000 H   0  0  0  0  0  0  0  0  0  0  0  0
   -2.4000    1.3856    0.0000 H   0  0  0  0  0  0  0  0  0  0  0  0
  1  2  1  0  0  0  0
  1  3  1  0  0  0  0
  1  4  1  0  0  0  0
  1  5  1  0  0  0  0
  5  6  2  0  0  0  0
  5  7  1  0  0  0  0
  7  8  1  0  0  0  0
  7  9  1  0  0  0  0
  7 10  1  0  0  0  0
 10 11  1  0  0  0  0
 10 12  1  0  0  0  0
 12 13  1  0  0  0  0
 12 14  1  0  0  0  0
 12 15  1  0  0  0  0
 10 16  1  0  0  0  0
 16 17  1  0  0  0  0
 16 18  1  0  0  0  0
 16 19  1  0  0  0  0
M  END
> <ChemID>
100944

> <source_casrn>
108-10-1

> <CAS>
108-10-1

> <SMILES>
CC(C)CC(C)=O

> <NAME>
4-METHYL-2-PENTANONE

> <preferred_name>
4-Methyl-2-pentanone

> <iupac>
4-methylpentan-2-one

> <MPID>
20011

> <dsstox_substance_id>
DTXSID5021889

> <Canonical_QSARr>
CC(C)CC(C)=O

> <InChI_Code_QSARr>
InChI=1S/C6H12O/c1-5(2)4-6(3)7/h5H,4H2,1-3H3

> <InChI Key_QSARr>
NTIZESTWPVYFNL-UHFFFAOYSA-N

> <Salt_Solvent>
?

> <BP>
116.5

$$$$
100948
  -INDIGO-08031720192D

 22 21  0  0  0  0  0  0  0  0999 V2000
    1.3856    0.8000    0.0000 N   0  0  0  0  0  0  0  0  0  0  0  0
    1.3856    2.4000    0.0000 H   0  0  0  0  0  0  0  0  0  0  0  0
    2.7713    0.0000    0.0000 C   0  0  0  0  0  0  0  0  0  0  0  0
    1.9713   -1.3856    0.0000 H   0  0  0  0  0  0  0  0  0  0  0  0
    4.1569   -0.8000    0.0000 C   0  0  0  0  0  0  0  0  0  0  0  0
    5.5426   -1.6000    0.0000 H   0  0  0  0  0  0  0  0  0  0  0  0
    5.5426    0.0000    0.0000 H   0  0  0  0  0  0  0  0  0  0  0  0
    4.1569   -2.4000    0.0000 H   0  0  0  0  0  0  0  0  0  0  0  0
    3.5713    1.3856    0.0000 C   0  0  0  0  0  0  0  0  0  0  0  0
    4.3713    2.7713    0.0000 H   0  0  0  0  0  0  0  0  0  0  0  0
    5.1712    1.3856    0.0000 H   0  0  0  0  0  0  0  0  0  0  0  0
    2.7713    2.7713    0.0000 H   0  0  0  0  0  0  0  0  0  0  0  0
    0.0000    0.0000    0.0000 C   0  0  0  0  0  0  0  0  0  0  0  0
    0.8000   -1.3856    0.0000 H   0  0  0  0  0  0  0  0  0  0  0  0
   -1.3857   -0.8000    0.0000 C   0  0  0  0  0  0  0  0  0  0  0  0
   -2.7713   -1.6000    0.0000 H   0  0  0  0  0  0  0  0  0  0  0  0
   -2.7713    0.0000    0.0000 H   0  0  0  0  0  0  0  0  0  0  0  0
   -1.3857   -2.4000    0.0000 H   0  0  0  0  0  0  0  0  0  0  0  0
   -0.8000    1.3856    0.0000 C   0  0  0  0  0  0  0  0  0  0  0  0
   -1.6000    2.7713    0.0000 H   0  0  0  0  0  0  0  0  0  0  0  0
   -2.4000    1.3856    0.0000 H   0  0  0  0  0  0  0  0  0  0  0  0
    0.0000    2.7713    0.0000 H   0  0  0  0  0  0  0  0  0  0  0  0
  1  2  1  0  0  0  0
  1  3  1  0  0  0  0
  3  4  1  0  0  0  0
  3  5  1  0  0  0  0
  5  6  1  0  0  0  0
  5  7  1  0  0  0  0
  5  8  1  0  0  0  0
  3  9  1  0  0  0  0
  9 10  1  0  0  0  0
  9 11  1  0  0  0  0
  9 12  1  0  0  0  0
  1 13  1  0  0  0  0
 13 14  1  0  0  0  0
 13 15  1  0  0  0  0
 15 16  1  0  0  0  0
 15 17  1  0  0  0  0
 15 18  1  0  0  0  0
 13 19  1  0  0  0  0
 19 20  1  0  0  0  0
 19 21  1  0  0  0  0
 19 22  1  0  0  0  0
M  END
> <ChemID>
100948

> <source_casrn>
108-18-9

> <CAS>
108-18-9

> <SMILES>
CC(C)NC(C)C

> <NAME>
DIISOPROPYLAMINE

> <preferred_name>
Diisopropylamine

> <iupac>
N-(propan-2-yl)propan-2-amine

> <MPID>
20015

> <dsstox_substance_id>
DTXSID9025085

> <Canonical_QSARr>
CC(C)NC(C)C

> <InChI_Code_QSARr>
InChI=1S/C6H15N/c1-5(2)7-6(3)4/h5-7H,1-4H3

> <InChI Key_QSARr>
UAOMVDZJSHZZME-UHFFFAOYSA-N

> <Salt_Solvent>
?

> <BP>
83.9

$$$$
100952
  -INDIGO-08031720192D

 14 13  0  0  0  0  0  0  0  0999 V2000
    2.9613    0.5222    0.0000 C   0  0  0  0  0  0  0  0  0  0  0  0
    3.9898    1.7479    0.0000 O   0  0  0  0  0  0  0  0  0  0  0  0
    1.3856    0.8000    0.0000 O   0  0  0  0  0  0  0  0  0  0  0  0
    0.0000    0.0000    0.0000 C   0  0  0  0  0  0  0  0  0  0  0  0
   -1.3857   -0.8000    0.0000 H   0  0  0  0  0  0  0  0  0  0  0  0
   -0.8000    1.3856    0.0000 C   0  0  0  0  0  0  0  0  0  0  0  0
   -1.6000    2.7713    0.0000 H   0  0  0  0  0  0  0  0  0  0  0  0
   -2.4000    1.3856    0.0000 H   0  0  0  0  0  0  0  0  0  0  0  0
    0.0000    2.7713    0.0000 H   0  0  0  0  0  0  0  0  0  0  0  0
    0.8000   -1.3856    0.0000 C   0  0  0  0  0  0  0  0  0  0  0  0
    1.6000   -2.7713    0.0000 H   0  0  0  0  0  0  0  0  0  0  0  0
    0.0000   -2.7713    0.0000 H   0  0  0  0  0  0  0  0  0  0  0  0
    2.4000   -1.3856    0.0000 H   0  0  0  0  0  0  0  0  0  0  0  0
    3.5085   -0.9814    0.0000 Cl  0  0  0  0  0  0  0  0  0  0  0  0
  1  2  2  0  0  0  0
  1  3  1  0  0  0  0
  3  4  1  0  0  0  0
  4  5  1  0  0  0  0
  4  6  1  0  0  0  0
  6  7  1  0  0  0  0
  6  8  1  0  0  0  0
  6  9  1  0  0  0  0
  4 10  1  0  0  0  0
 10 11  1  0  0  0  0
 10 12  1  0  0  0  0
 10 13  1  0  0  0  0
  1 14  1  0  0  0  0
M  END
> <ChemID>
100952

> <source_casrn>
108-23-6

> <CAS>
108-23-6

> <SMILES>
CC(C)OC(=O)Cl

> <NAME>
ISOPROPYL CHLOROFORMATE

> <preferred_name>
Isopropyl chloroformate

> <iupac>
propan-2-yl carbonochloridate

> <MPID>
20019

> <dsstox_substance_id>
DTXSID7026786

> <Canonical_QSARr>
CC(C)OC(=O)Cl

> <InChI_Code_QSARr>
InChI=1S/C4H7ClO2/c1-3(2)7-4(5)6/h3H,1-2H3

> <InChI Key_QSARr>
IVRIRQXJSNCSPQ-UHFFFAOYSA-N

> <Salt_Solvent>
?

> <BP>
105.0

$$$$
100956
  -INDIGO-08031720192D

  9  9  0  0  0  0  0  0  0  0999 V2000
    1.0530    2.3650    0.0000 O   0  0  0  0  0  0  0  0  0  0  0  0
    2.2420    1.2944    0.0000 C   0  0  0  0  0  0  0  0  0  0  0  0
    3.8070    1.6271    0.0000 O   0  0  0  0  0  0  0  0  0  0  0  0
    1.5912   -0.1672    0.0000 C   0  0  0  0  0  0  0  0  0  0  0  0
    2.3912   -1.5529    0.0000 H   0  0  0  0  0  0  0  0  0  0  0  0
   -0.0000    0.0000    0.0000 C   0  0  0  0  0  0  0  0  0  0  0  0
   -1.0706   -1.1890    0.0000 H   0  0  0  0  0  0  0  0  0  0  0  0
   -0.3327    1.5650    0.0000 C   0  0  0  0  0  0  0  0  0  0  0  0
   -1.7943    2.2158    0.0000 O   0  0  0  0  0  0  0  0  0  0  0  0
  1  2  1  0  0  0  0
  2  3  2  0  0  0  0
  2  4  1  0  0  0  0
  4  5  1  0  0  0  0
  4  6  2  0  0  0  0
  6  7  1  0  0  0  0
  6  8  1  0  0  0  0
  8  1  1  0  0  0  0
  8  9  2  0  0  0  0
M  END
> <ChemID>
100956

> <source_casrn>
108-31-6|24937-72-2

> <CAS>
108-31-6

> <SMILES>
O=C1C=CC(=O)O1

> <NAME>
MALEIC ANHYDRIDE, Polymaleic anhydride

> <preferred_name>
2,5-Furandione

> <iupac>
furan-2,5-dione

> <MPID>
20023|24441

> <dsstox_substance_id>
DTXSID7024166

> <Canonical_QSARr>
O=C1C=CC(=O)O1

> <InChI_Code_QSARr>
InChI=1S/C4H2O3/c5-3-1-2-4(6)7-3/h1-2H

> <InChI Key_QSARr>
FPYJFEHAWHCUMM-UHFFFAOYSA-N

> <Salt_Solvent>
?

> <BP>
202.0

$$$$
100960
  -INDIGO-08031720192D

 18 18  0  0  0  0  0  0  0  0999 V2000
    2.7713    1.6000    0.0000 C   0  0  0  0  0  0  0  0  0  0  0  0
    4.1570    2.4000    0.0000 H   0  0  0  0  0  0  0  0  0  0  0  0
    2.7713    0.0000    0.0000 C   0  0  0  0  0  0  0  0  0  0  0  0
    4.1570   -0.8000    0.0000 C   0  0  0  0  0  0  0  0  0  0  0  0
    5.5426   -1.6000    0.0000 H   0  0  0  0  0  0  0  0  0  0  0  0
    5.5426    0.0000    0.0000 H   0  0  0  0  0  0  0  0  0  0  0  0
    4.1570   -2.4000    0.0000 H   0  0  0  0  0  0  0  0  0  0  0  0
    1.3857   -0.8000    0.0000 C   0  0  0  0  0  0  0  0  0  0  0  0
    1.3857   -2.4000    0.0000 H   0  0  0  0  0  0  0  0  0  0  0  0
    0.0000    0.0000    0.0000 C   0  0  0  0  0  0  0  0  0  0  0  0
   -1.3857   -0.8000    0.0000 C   0  0  0  0  0  0  0  0  0  0  0  0
   -2.7713   -1.6000    0.0000 H   0  0  0  0  0  0  0  0  0  0  0  0
   -2.7713    0.0000    0.0000 H   0  0  0  0  0  0  0  0  0  0  0  0
   -1.3857   -2.4000    0.0000 H   0  0  0  0  0  0  0  0  0  0  0  0
    0.0000    1.6000    0.0000 C   0  0  0  0  0  0  0  0  0  0  0  0
   -1.3856    2.4000    0.0000 H   0  0  0  0  0  0  0  0  0  0  0  0
    1.3857    2.4000    0.0000 C   0  0  0  0  0  0  0  0  0  0  0  0
    1.3857    4.0000    0.0000 H   0  0  0  0  0  0  0  0  0  0  0  0
  1  2  1  0  0  0  0
  1  3  1  0  0  0  0
  3  4  1  0  0  0  0
  4  5  1  0  0  0  0
  4  6  1  0  0  0  0
  4  7  1  0  0  0  0
  3  8  2  0  0  0  0
  8  9  1  0  0  0  0
  8 10  1  0  0  0  0
 10 11  1  0  0  0  0
 11 12  1  0  0  0  0
 11 13  1  0  0  0  0
 11 14  1  0  0  0  0
 10 15  2  0  0  0  0
 15 16  1  0  0  0  0
 15 17  1  0  0  0  0
 17  1  2  0  0  0  0
 17 18  1  0  0  0  0
M  END
> <ChemID>
100960

> <source_casrn>
108-38-3

> <CAS>
108-38-3

> <SMILES>
Cc1cc(C)ccc1

> <NAME>
M-XYLENE

> <preferred_name>
m-Xylene

> <iupac>
C8H10

> <MPID>
20027

> <dsstox_substance_id>
DTXSID6026298

> <Canonical_QSARr>
Cc1cc(C)ccc1

> <InChI_Code_QSARr>
InChI=1S/C8H10/c1-7-4-3-5-8(2)6-7/h3-6H,1-2H3

> <InChI Key_QSARr>
IVSZLXZYQVIEFR-UHFFFAOYSA-N

> <Salt_Solvent>
?

> <BP>
139.1

$$$$
100964
  -INDIGO-08031720192D

 14 14  0  0  0  0  0  0  0  0999 V2000
    3.2000    2.7713    0.0000 Cl  0  0  0  0  0  0  0  0  0  0  0  0
    2.4000    1.3856    0.0000 C   0  0  0  0  0  0  0  0  0  0  0  0
    3.2000   -0.0000    0.0000 C   0  0  0  0  0  0  0  0  0  0  0  0
    4.8000   -0.0000    0.0000 H   0  0  0  0  0  0  0  0  0  0  0  0
    2.4000   -1.3856    0.0000 C   0  0  0  0  0  0  0  0  0  0  0  0
    3.2000   -2.7713    0.0000 H   0  0  0  0  0  0  0  0  0  0  0  0
    0.8000   -1.3856    0.0000 C   0  0  0  0  0  0  0  0  0  0  0  0
    0.0000   -2.7713    0.0000 H   0  0  0  0  0  0  0  0  0  0  0  0
    0.0000    0.0000    0.0000 C   0  0  0  0  0  0  0  0  0  0  0  0
   -1.6000    0.0000    0.0000 N   0  0  0  0  0  0  0  0  0  0  0  0
   -2.4000   -1.3856    0.0000 H   0  0  0  0  0  0  0  0  0  0  0  0
   -2.4000    1.3856    0.0000 H   0  0  0  0  0  0  0  0  0  0  0  0
    0.8000    1.3856    0.0000 C   0  0  0  0  0  0  0  0  0  0  0  0
    0.0000    2.7713    0.0000 H   0  0  0  0  0  0  0  0  0  0  0  0
  1  2  1  0  0  0  0
  2  3  1  0  0  0  0
  3  4  1  0  0  0  0
  3  5  2  0  0  0  0
  5  6  1  0  0  0  0
  5  7  1  0  0  0  0
  7  8  1  0  0  0  0
  7  9  2  0  0  0  0
  9 10  1  0  0  0  0
 10 11  1  0  0  0  0
 10 12  1  0  0  0  0
  9 13  1  0  0  0  0
 13  2  2  0  0  0  0
 13 14  1  0  0  0  0
M  END
> <ChemID>
100964

> <source_casrn>
108-42-9

> <CAS>
108-42-9

> <SMILES>
Nc1cc(Cl)ccc1

> <NAME>
3-CHLOROANILINE

> <preferred_name>
3-Chloroaniline

> <iupac>
3-chloroaniline

> <MPID>
20031

> <dsstox_substance_id>
DTXSID0024761

> <Canonical_QSARr>
Nc1cc(Cl)ccc1

> <InChI_Code_QSARr>
InChI=1S/C6H6ClN/c7-5-2-1-3-6(8)4-5/h1-4H,8H2

> <InChI Key_QSARr>
PNPCRKVUWYDDST-UHFFFAOYSA-N

> <Salt_Solvent>
?

> <BP>
230.5

$$$$
100968
  -INDIGO-08031720192D

 14 14  0  0  0  0  0  0  0  0999 V2000
    1.6000   -0.0000    0.0000 O   0  0  0  0  0  0  0  0  0  0  0  0
    2.4000   -1.3856    0.0000 H   0  0  0  0  0  0  0  0  0  0  0  0
    0.0000   -0.0000    0.0000 C   0  0  0  0  0  0  0  0  0  0  0  0
   -0.8000    1.3856    0.0000 C   0  0  0  0  0  0  0  0  0  0  0  0
    0.0000    2.7713    0.0000 H   0  0  0  0  0  0  0  0  0  0  0  0
   -2.4000    1.3856    0.0000 C   0  0  0  0  0  0  0  0  0  0  0  0
   -3.2000    2.7713    0.0000 O   0  0  0  0  0  0  0  0  0  0  0  0
   -4.8000    2.7713    0.0000 H   0  0  0  0  0  0  0  0  0  0  0  0
   -3.2000   -0.0000    0.0000 C   0  0  0  0  0  0  0  0  0  0  0  0
   -4.8000   -0.0000    0.0000 H   0  0  0  0  0  0  0  0  0  0  0  0
   -2.4000   -1.3856    0.0000 C   0  0  0  0  0  0  0  0  0  0  0  0
   -3.2000   -2.7713    0.0000 H   0  0  0  0  0  0  0  0  0  0  0  0
   -0.8000   -1.3856    0.0000 C   0  0  0  0  0  0  0  0  0  0  0  0
    0.0000   -2.7713    0.0000 H   0  0  0  0  0  0  0  0  0  0  0  0
  1  2  1  0  0  0  0
  1  3  1  0  0  0  0
  3  4  1  0  0  0  0
  4  5  1  0  0  0  0
  4  6  2  0  0  0  0
  6  7  1  0  0  0  0
  7  8  1  0  0  0  0
  6  9  1  0  0  0  0
  9 10  1  0  0  0  0
  9 11  2  0  0  0  0
 11 12  1  0  0  0  0
 11 13  1  0  0  0  0
 13  3  2  0  0  0  0
 13 14  1  0  0  0  0
M  END
> <ChemID>
100968

> <source_casrn>
108-46-3

> <CAS>
108-46-3

> <SMILES>
Oc1cc(O)ccc1

> <NAME>
RESORCINOL

> <preferred_name>
Resorcinol

> <iupac>
benzene-1,3-diol

> <MPID>
20035

> <dsstox_substance_id>
DTXSID2021238

> <Canonical_QSARr>
Oc1cc(O)ccc1

> <InChI_Code_QSARr>
InChI=1S/C6H6O2/c7-5-2-1-3-6(8)4-5/h1-4,7-8H

> <InChI Key_QSARr>
GHMLBKRAJCXXBS-UHFFFAOYSA-N

> <Salt_Solvent>
?

> <BP>
280.0

$$$$
100972
  -INDIGO-08031720192D

 14 14  0  0  0  0  0  0  0  0999 V2000
   -0.0000    3.2000    0.0000 O   0  0  0  0  0  0  0  0  0  0  0  0
    1.3857    2.4000    0.0000 C   0  0  0  0  0  0  0  0  0  0  0  0
    2.7713    3.2000    0.0000 O   0  0  0  0  0  0  0  0  0  0  0  0
    1.3857    0.8000    0.0000 C   0  0  0  0  0  0  0  0  0  0  0  0
    2.9613    1.0778    0.0000 H   0  0  0  0  0  0  0  0  0  0  0  0
    1.9329   -0.7035    0.0000 H   0  0  0  0  0  0  0  0  0  0  0  0
   -0.0000    0.0000    0.0000 C   0  0  0  0  0  0  0  0  0  0  0  0
    1.0285   -1.2257    0.0000 H   0  0  0  0  0  0  0  0  0  0  0  0
   -1.0285   -1.2257    0.0000 H   0  0  0  0  0  0  0  0  0  0  0  0
   -1.3857    0.8000    0.0000 C   0  0  0  0  0  0  0  0  0  0  0  0
   -1.9329   -0.7035    0.0000 H   0  0  0  0  0  0  0  0  0  0  0  0
   -2.9613    1.0778    0.0000 H   0  0  0  0  0  0  0  0  0  0  0  0
   -1.3857    2.4000    0.0000 C   0  0  0  0  0  0  0  0  0  0  0  0
   -2.7713    3.2000    0.0000 O   0  0  0  0  0  0  0  0  0  0  0  0
  1  2  1  0  0  0  0
  2  3  2  0  0  0  0
  2  4  1  0  0  0  0
  4  5  1  0  0  0  0
  4  6  1  0  0  0  0
  4  7  1  0  0  0  0
  7  8  1  0  0  0  0
  7  9  1  0  0  0  0
  7 10  1  0  0  0  0
 10 11  1  0  0  0  0
 10 12  1  0  0  0  0
 10 13  1  0  0  0  0
 13  1  1  0  0  0  0
 13 14  2  0  0  0  0
M  END
> <ChemID>
100972

> <source_casrn>
108-55-4

> <CAS>
108-55-4

> <SMILES>
O=C1CCCC(=O)O1

> <NAME>
GLUTARIC ANHYDRIDE

> <preferred_name>
Glutaric anhydride

> <iupac>
dihydro-2H-pyran-2,6(3H)-dione

> <MPID>
20039

> <dsstox_substance_id>
DTXSID5044362

> <Canonical_QSARr>
O=C1CCCC(=O)O1

> <InChI_Code_QSARr>
InChI=1S/C5H6O3/c6-4-2-1-3-5(7)8-4/h1-3H2

> <InChI Key_QSARr>
VANNPISTIUFMLH-UHFFFAOYSA-N

> <Salt_Solvent>
?

> <BP>
287.0

$$$$
100977
  -INDIGO-08031720192D

 21 20  0  0  0  0  0  0  0  0999 V2000
    0.8000   -1.3857    0.0000 C   0  0  0  0  0  0  0  0  0  0  0  0
    2.2782   -0.7733    0.0000 H   0  0  0  0  0  0  0  0  0  0  0  0
    2.2782   -1.9980    0.0000 H   0  0  0  0  0  0  0  0  0  0  0  0
    0.0001    0.0001    0.0000 C   0  0  0  0  0  0  0  0  0  0  0  0
   -1.3856   -0.8000    0.0000 H   0  0  0  0  0  0  0  0  0  0  0  0
   -0.8000    1.3857    0.0000 C   0  0  0  0  0  0  0  0  0  0  0  0
   -1.5999    2.7713    0.0000 H   0  0  0  0  0  0  0  0  0  0  0  0
   -2.4000    1.3857    0.0000 H   0  0  0  0  0  0  0  0  0  0  0  0
    0.0001    2.7713    0.0000 H   0  0  0  0  0  0  0  0  0  0  0  0
    1.3857    0.8000    0.0000 O   0  0  0  0  0  0  0  0  0  0  0  0
    2.8891    0.2528    0.0000 C   0  0  0  0  0  0  0  0  0  0  0  0
    3.1670   -1.3229    0.0000 O   0  0  0  0  0  0  0  0  0  0  0  0
    4.1149    1.2812    0.0000 C   0  0  0  0  0  0  0  0  0  0  0  0
    5.3405    2.3096    0.0000 H   0  0  0  0  0  0  0  0  0  0  0  0
    5.6183    0.7339    0.0000 H   0  0  0  0  0  0  0  0  0  0  0  0
    3.8370    2.8569    0.0000 H   0  0  0  0  0  0  0  0  0  0  0  0
    0.0001   -2.7713    0.0000 O   0  0  0  0  0  0  0  0  0  0  0  0
    0.8000   -4.1569    0.0000 C   0  0  0  0  0  0  0  0  0  0  0  0
    1.6000   -5.5426    0.0000 H   0  0  0  0  0  0  0  0  0  0  0  0
    0.0001   -5.5426    0.0000 H   0  0  0  0  0  0  0  0  0  0  0  0
    2.4000   -4.1569    0.0000 H   0  0  0  0  0  0  0  0  0  0  0  0
  1  2  1  0  0  0  0
  1  3  1  0  0  0  0
  1  4  1  0  0  0  0
  4  5  1  0  0  0  0
  4  6  1  0  0  0  0
  6  7  1  0  0  0  0
  6  8  1  0  0  0  0
  6  9  1  0  0  0  0
  4 10  1  0  0  0  0
 10 11  1  0  0  0  0
 11 12  2  0  0  0  0
 11 13  1  0  0  0  0
 13 14  1  0  0  0  0
 13 15  1  0  0  0  0
 13 16  1  0  0  0  0
  1 17  1  0  0  0  0
 17 18  1  0  0  0  0
 18 19  1  0  0  0  0
 18 20  1  0  0  0  0
 18 21  1  0  0  0  0
M  END
> <ChemID>
100977

> <source_casrn>
108-65-6

> <CAS>
108-65-6

> <SMILES>
COCC(C)OC(C)=O

> <NAME>
PROPYLENE GLYCOL ME ETHER ACETATE

> <preferred_name>
1-Methoxy-2-propyl acetate

> <iupac>
1-methoxypropan-2-yl acetate

> <MPID>
20043

> <dsstox_substance_id>
DTXSID1026796

> <Canonical_QSARr>
COCC(C)OC(C)=O

> <InChI_Code_QSARr>
InChI=1S/C6H12O3/c1-5(4-8-3)9-6(2)7/h5H,4H2,1-3H3

> <InChI Key_QSARr>
LLHKCFNBLRBOGN-UHFFFAOYSA-N

> <Salt_Solvent>
?

> <BP>
145.5

$$$$
100981
  -INDIGO-08031720192D

 12 12  0  0  0  0  0  0  0  0999 V2000
   -0.0000   -0.0000    0.0000 C   0  0  0  0  0  0  0  0  0  0  0  0
    0.8000   -1.3857    0.0000 C   0  0  0  0  0  0  0  0  0  0  0  0
    2.4000   -1.3857    0.0000 H   0  0  0  0  0  0  0  0  0  0  0  0
   -0.0000   -2.7713    0.0000 C   0  0  0  0  0  0  0  0  0  0  0  0
    0.8000   -4.1569    0.0000 Cl  0  0  0  0  0  0  0  0  0  0  0  0
   -1.6000   -2.7713    0.0000 C   0  0  0  0  0  0  0  0  0  0  0  0
   -2.4000   -4.1569    0.0000 H   0  0  0  0  0  0  0  0  0  0  0  0
   -2.4000   -1.3856    0.0000 C   0  0  0  0  0  0  0  0  0  0  0  0
   -4.0000   -1.3856    0.0000 Cl  0  0  0  0  0  0  0  0  0  0  0  0
   -1.6000   -0.0000    0.0000 C   0  0  0  0  0  0  0  0  0  0  0  0
   -2.4000    1.3856    0.0000 H   0  0  0  0  0  0  0  0  0  0  0  0
    0.8000    1.3856    0.0000 Cl  0  0  0  0  0  0  0  0  0  0  0  0
  1  2  1  0  0  0  0
  2  3  1  0  0  0  0
  2  4  2  0  0  0  0
  4  5  1  0  0  0  0
  4  6  1  0  0  0  0
  6  7  1  0  0  0  0
  6  8  2  0  0  0  0
  8  9  1  0  0  0  0
  8 10  1  0  0  0  0
 10  1  2  0  0  0  0
 10 11  1  0  0  0  0
  1 12  1  0  0  0  0
M  END
> <ChemID>
100981

> <source_casrn>
108-70-3

> <CAS>
108-70-3

> <SMILES>
Clc1cc(Cl)cc(Cl)c1

> <NAME>
1,3,5-TRICHLOROBENZENE

> <preferred_name>
1,3,5-Trichlorobenzene

> <iupac>
C6H3Cl3

> <MPID>
20047

> <dsstox_substance_id>
DTXSID8026195

> <Canonical_QSARr>
Clc1cc(Cl)cc(Cl)c1

> <InChI_Code_QSARr>
InChI=1S/C6H3Cl3/c7-4-1-5(8)3-6(9)2-4/h1-3H

> <InChI Key_QSARr>
XKEFYDZQGKAQCN-UHFFFAOYSA-N

> <Salt_Solvent>
?

> <BP>
208.0

$$$$
100985
  -INDIGO-08031720192D

 30 29  0  0  0  0  0  0  0  0999 V2000
    0.8000    1.3857    0.0000 C   0  0  0  0  0  0  0  0  0  0  0  0
    1.6000    2.7713    0.0000 H   0  0  0  0  0  0  0  0  0  0  0  0
   -0.0000    2.7713    0.0000 H   0  0  0  0  0  0  0  0  0  0  0  0
    2.4001    1.3857    0.0000 H   0  0  0  0  0  0  0  0  0  0  0  0
   -0.0000    0.0000    0.0000 C   0  0  0  0  0  0  0  0  0  0  0  0
   -0.5472   -1.5035    0.0000 H   0  0  0  0  0  0  0  0  0  0  0  0
   -1.5036    0.5472    0.0000 C   0  0  0  0  0  0  0  0  0  0  0  0
   -1.1572    2.1093    0.0000 H   0  0  0  0  0  0  0  0  0  0  0  0
   -2.3633    1.8967    0.0000 H   0  0  0  0  0  0  0  0  0  0  0  0
   -2.7292   -0.4813    0.0000 C   0  0  0  0  0  0  0  0  0  0  0  0
   -1.7007   -1.7069    0.0000 H   0  0  0  0  0  0  0  0  0  0  0  0
   -3.9548   -1.5096    0.0000 C   0  0  0  0  0  0  0  0  0  0  0  0
   -4.3011   -3.0717    0.0000 H   0  0  0  0  0  0  0  0  0  0  0  0
   -3.0952   -2.8591    0.0000 H   0  0  0  0  0  0  0  0  0  0  0  0
   -5.4583   -0.9624    0.0000 C   0  0  0  0  0  0  0  0  0  0  0  0
   -4.9112    0.5410    0.0000 H   0  0  0  0  0  0  0  0  0  0  0  0
   -6.9618   -0.4152    0.0000 C   0  0  0  0  0  0  0  0  0  0  0  0
   -8.4654    0.1320    0.0000 H   0  0  0  0  0  0  0  0  0  0  0  0
   -8.1876   -1.4437    0.0000 H   0  0  0  0  0  0  0  0  0  0  0  0
   -7.2398    1.1604    0.0000 H   0  0  0  0  0  0  0  0  0  0  0  0
   -6.0056   -2.4660    0.0000 C   0  0  0  0  0  0  0  0  0  0  0  0
   -6.5529   -3.9695    0.0000 H   0  0  0  0  0  0  0  0  0  0  0  0
   -5.2056   -3.8516    0.0000 H   0  0  0  0  0  0  0  0  0  0  0  0
   -7.5813   -2.7438    0.0000 H   0  0  0  0  0  0  0  0  0  0  0  0
   -3.7576    0.7445    0.0000 O   0  0  0  0  0  0  0  0  0  0  0  0
   -3.4798    2.3201    0.0000 H   0  0  0  0  0  0  0  0  0  0  0  0
    1.3857   -0.8000    0.0000 C   0  0  0  0  0  0  0  0  0  0  0  0
    2.7713   -1.5999    0.0000 H   0  0  0  0  0  0  0  0  0  0  0  0
    2.7713    0.0000    0.0000 H   0  0  0  0  0  0  0  0  0  0  0  0
    1.3857   -2.4000    0.0000 H   0  0  0  0  0  0  0  0  0  0  0  0
  1  2  1  0  0  0  0
  1  3  1  0  0  0  0
  1  4  1  0  0  0  0
  1  5  1  0  0  0  0
  5  6  1  0  0  0  0
  5  7  1  0  0  0  0
  7  8  1  0  0  0  0
  7  9  1  0  0  0  0
  7 10  1  0  0  0  0
 10 11  1  0  0  0  0
 10 12  1  0  0  0  0
 12 13  1  0  0  0  0
 12 14  1  0  0  0  0
 12 15  1  0  0  0  0
 15 16  1  0  0  0  0
 15 17  1  0  0  0  0
 17 18  1  0  0  0  0
 17 19  1  0  0  0  0
 17 20  1  0  0  0  0
 15 21  1  0  0  0  0
 21 22  1  0  0  0  0
 21 23  1  0  0  0  0
 21 24  1  0  0  0  0
 10 25  1  0  0  0  0
 25 26  1  0  0  0  0
  5 27  1  0  0  0  0
 27 28  1  0  0  0  0
 27 29  1  0  0  0  0
 27 30  1  0  0  0  0
M  END
> <ChemID>
100985

> <source_casrn>
108-82-7

> <CAS>
108-82-7

> <SMILES>
CC(C)CC(O)CC(C)C

> <NAME>
2,6-DIMETHYL-4-HEPTANOL

> <preferred_name>
2,6-Dimethyl-4-heptanol

> <iupac>
2,6-dimethylheptan-4-ol

> <MPID>
20051

> <dsstox_substance_id>
DTXSID8026802

> <Canonical_QSARr>
CC(C)CC(O)CC(C)C

> <InChI_Code_QSARr>
InChI=1S/C9H20O/c1-7(2)5-9(10)6-8(3)4/h7-10H,5-6H2,1-4H3

> <InChI Key_QSARr>
HXQPUEQDBSPXTE-UHFFFAOYSA-N

> <Salt_Solvent>
?

> <BP>
174.5

$$$$
100989
  -INDIGO-08031720192D

 12 12  0  0  0  0  0  0  0  0999 V2000
   -0.0000   -0.0000    0.0000 C   0  0  0  0  0  0  0  0  0  0  0  0
    0.8000   -1.3857    0.0000 C   0  0  0  0  0  0  0  0  0  0  0  0
    2.4000   -1.3857    0.0000 H   0  0  0  0  0  0  0  0  0  0  0  0
   -0.0000   -2.7713    0.0000 C   0  0  0  0  0  0  0  0  0  0  0  0
    0.8000   -4.1569    0.0000 H   0  0  0  0  0  0  0  0  0  0  0  0
   -1.6000   -2.7713    0.0000 C   0  0  0  0  0  0  0  0  0  0  0  0
   -2.4000   -4.1569    0.0000 H   0  0  0  0  0  0  0  0  0  0  0  0
   -2.4000   -1.3856    0.0000 C   0  0  0  0  0  0  0  0  0  0  0  0
   -4.0000   -1.3856    0.0000 H   0  0  0  0  0  0  0  0  0  0  0  0
   -1.6000   -0.0000    0.0000 C   0  0  0  0  0  0  0  0  0  0  0  0
   -2.4000    1.3856    0.0000 H   0  0  0  0  0  0  0  0  0  0  0  0
    0.8000    1.3856    0.0000 Br  0  0  0  0  0  0  0  0  0  0  0  0
  1  2  1  0  0  0  0
  2  3  1  0  0  0  0
  2  4  2  0  0  0  0
  4  5  1  0  0  0  0
  4  6  1  0  0  0  0
  6  7  1  0  0  0  0
  6  8  2  0  0  0  0
  8  9  1  0  0  0  0
  8 10  1  0  0  0  0
 10  1  2  0  0  0  0
 10 11  1  0  0  0  0
  1 12  1  0  0  0  0
M  END
> <ChemID>
100989

> <source_casrn>
108-86-1

> <CAS>
108-86-1

> <SMILES>
Brc1ccccc1

> <NAME>
BROMOBENZENE

> <preferred_name>
Bromobenzene

> <iupac>
bromobenzene

> <MPID>
20055

> <dsstox_substance_id>
DTXSID5024637

> <Canonical_QSARr>
Brc1ccccc1

> <InChI_Code_QSARr>
InChI=1S/C6H5Br/c7-6-4-2-1-3-5-6/h1-5H

> <InChI Key_QSARr>
QARVLSVVCXYDNA-UHFFFAOYSA-N

> <Salt_Solvent>
?

> <BP>
156.0

$$$$
100993
  -INDIGO-08031720192D

 12 12  0  0  0  0  0  0  0  0999 V2000
    0.8000    1.3856    0.0000 Cl  0  0  0  0  0  0  0  0  0  0  0  0
   -0.0000   -0.0000    0.0000 C   0  0  0  0  0  0  0  0  0  0  0  0
    0.8000   -1.3857    0.0000 C   0  0  0  0  0  0  0  0  0  0  0  0
    2.4000   -1.3857    0.0000 H   0  0  0  0  0  0  0  0  0  0  0  0
   -0.0000   -2.7713    0.0000 C   0  0  0  0  0  0  0  0  0  0  0  0
    0.8000   -4.1569    0.0000 H   0  0  0  0  0  0  0  0  0  0  0  0
   -1.6000   -2.7713    0.0000 C   0  0  0  0  0  0  0  0  0  0  0  0
   -2.4000   -4.1569    0.0000 H   0  0  0  0  0  0  0  0  0  0  0  0
   -2.4000   -1.3856    0.0000 C   0  0  0  0  0  0  0  0  0  0  0  0
   -4.0000   -1.3856    0.0000 H   0  0  0  0  0  0  0  0  0  0  0  0
   -1.6000   -0.0000    0.0000 C   0  0  0  0  0  0  0  0  0  0  0  0
   -2.4000    1.3856    0.0000 H   0  0  0  0  0  0  0  0  0  0  0  0
  1  2  1  0  0  0  0
  2  3  1  0  0  0  0
  3  4  1  0  0  0  0
  3  5  2  0  0  0  0
  5  6  1  0  0  0  0
  5  7  1  0  0  0  0
  7  8  1  0  0  0  0
  7  9  2  0  0  0  0
  9 10  1  0  0  0  0
  9 11  1  0  0  0  0
 11  2  2  0  0  0  0
 11 12  1  0  0  0  0
M  END
> <ChemID>
100993

> <source_casrn>
108-90-7

> <CAS>
108-90-7

> <SMILES>
Clc1ccccc1

> <NAME>
CHLOROBENZENE

> <preferred_name>
Chlorobenzene

> <iupac>
chlorobenzene

> <MPID>
20059

> <dsstox_substance_id>
DTXSID4020298

> <Canonical_QSARr>
Clc1ccccc1

> <InChI_Code_QSARr>
InChI=1S/C6H5Cl/c7-6-4-2-1-3-5-6/h1-5H

> <InChI Key_QSARr>
MVPPADPHJFYWMZ-UHFFFAOYSA-N

> <Salt_Solvent>
?

> <BP>
131.7

$$$$
100997
  -INDIGO-08031720192D

 13 13  0  0  0  0  0  0  0  0999 V2000
    0.8000    1.3856    0.0000 O   0  0  0  0  0  0  0  0  0  0  0  0
    2.4000    1.3856    0.0000 H   0  0  0  0  0  0  0  0  0  0  0  0
   -0.0000   -0.0000    0.0000 C   0  0  0  0  0  0  0  0  0  0  0  0
    0.8000   -1.3857    0.0000 C   0  0  0  0  0  0  0  0  0  0  0  0
    2.4000   -1.3857    0.0000 H   0  0  0  0  0  0  0  0  0  0  0  0
   -0.0000   -2.7713    0.0000 C   0  0  0  0  0  0  0  0  0  0  0  0
    0.8000   -4.1569    0.0000 H   0  0  0  0  0  0  0  0  0  0  0  0
   -1.6000   -2.7713    0.0000 C   0  0  0  0  0  0  0  0  0  0  0  0
   -2.4000   -4.1569    0.0000 H   0  0  0  0  0  0  0  0  0  0  0  0
   -2.4000   -1.3856    0.0000 C   0  0  0  0  0  0  0  0  0  0  0  0
   -4.0000   -1.3856    0.0000 H   0  0  0  0  0  0  0  0  0  0  0  0
   -1.6000   -0.0000    0.0000 C   0  0  0  0  0  0  0  0  0  0  0  0
   -2.4000    1.3856    0.0000 H   0  0  0  0  0  0  0  0  0  0  0  0
  1  2  1  0  0  0  0
  1  3  1  0  0  0  0
  3  4  1  0  0  0  0
  4  5  1  0  0  0  0
  4  6  2  0  0  0  0
  6  7  1  0  0  0  0
  6  8  1  0  0  0  0
  8  9  1  0  0  0  0
  8 10  2  0  0  0  0
 10 11  1  0  0  0  0
 10 12  1  0  0  0  0
 12  3  2  0  0  0  0
 12 13  1  0  0  0  0
M  END
> <ChemID>
100997

> <source_casrn>
108-95-2

> <CAS>
108-95-2

> <SMILES>
Oc1ccccc1

> <NAME>
PHENOL

> <preferred_name>
Phenol

> <iupac>
phenol

> <MPID>
20063

> <dsstox_substance_id>
DTXSID5021124

> <Canonical_QSARr>
Oc1ccccc1

> <InChI_Code_QSARr>
InChI=1S/C6H6O/c7-6-4-2-1-3-5-6/h1-5,7H

> <InChI Key_QSARr>
ISWSIDIOOBJBQZ-UHFFFAOYSA-N

> <Salt_Solvent>
?

> <BP>
181.8

$$$$
101001
  -INDIGO-08031720192D

 19 19  0  0  0  0  0  0  0  0999 V2000
    1.6000   -0.0000    0.0000 C   0  0  0  0  0  0  0  0  0  0  0  0
    3.2000   -0.0000    0.0000 H   0  0  0  0  0  0  0  0  0  0  0  0
    2.4001   -1.3857    0.0000 H   0  0  0  0  0  0  0  0  0  0  0  0
    2.4001    1.3857    0.0000 H   0  0  0  0  0  0  0  0  0  0  0  0
    0.0000   -0.0000    0.0000 N   0  0  0  0  0  0  0  0  0  0  0  0
   -0.7999    1.3857    0.0000 C   0  0  0  0  0  0  0  0  0  0  0  0
    0.7035    1.9329    0.0000 H   0  0  0  0  0  0  0  0  0  0  0  0
   -1.0779    2.9613    0.0000 H   0  0  0  0  0  0  0  0  0  0  0  0
   -2.4001    1.3857    0.0000 C   0  0  0  0  0  0  0  0  0  0  0  0
   -2.1221    2.9613    0.0000 H   0  0  0  0  0  0  0  0  0  0  0  0
   -3.9035    1.9329    0.0000 H   0  0  0  0  0  0  0  0  0  0  0  0
   -3.2000   -0.0000    0.0000 N   0  0  0  0  0  0  0  0  0  0  0  0
   -4.8000   -0.0000    0.0000 H   0  0  0  0  0  0  0  0  0  0  0  0
   -2.4001   -1.3857    0.0000 C   0  0  0  0  0  0  0  0  0  0  0  0
   -3.9035   -1.9329    0.0000 H   0  0  0  0  0  0  0  0  0  0  0  0
   -2.1221   -2.9613    0.0000 H   0  0  0  0  0  0  0  0  0  0  0  0
   -0.8001   -1.3857    0.0000 C   0  0  0  0  0  0  0  0  0  0  0  0
   -1.0779   -2.9613    0.0000 H   0  0  0  0  0  0  0  0  0  0  0  0
    0.7035   -1.9329    0.0000 H   0  0  0  0  0  0  0  0  0  0  0  0
  1  2  1  0  0  0  0
  1  3  1  0  0  0  0
  1  4  1  0  0  0  0
  1  5  1  0  0  0  0
  5  6  1  0  0  0  0
  6  7  1  0  0  0  0
  6  8  1  0  0  0  0
  6  9  1  0  0  0  0
  9 10  1  0  0  0  0
  9 11  1  0  0  0  0
  9 12  1  0  0  0  0
 12 13  1  0  0  0  0
 12 14  1  0  0  0  0
 14 15  1  0  0  0  0
 14 16  1  0  0  0  0
 14 17  1  0  0  0  0
 17  5  1  0  0  0  0
 17 18  1  0  0  0  0
 17 19  1  0  0  0  0
M  END
> <ChemID>
101001

> <source_casrn>
109-01-3

> <CAS>
109-01-3

> <SMILES>
CN1CCNCC1

> <NAME>
Piperazine, 1-methyl-

> <preferred_name>
1-Methylpiperazine

> <iupac>
1-methylpiperazine

> <MPID>
20067

> <dsstox_substance_id>
DTXSID4021898

> <Canonical_QSARr>
CN1CCNCC1

> <InChI_Code_QSARr>
InChI=1S/C5H12N2/c1-7-4-2-6-3-5-7/h6H,2-5H2,1H3

> <InChI Key_QSARr>
PVOAHINGSUIXLS-UHFFFAOYSA-N

> <Salt_Solvent>
?

> <BP>
138.0

$$$$
101005
  -INDIGO-08031720192D

 14 14  0  0  0  0  0  0  0  0999 V2000
   -0.8001    1.3856    0.0000 N   0  0  0  0  0  0  0  0  0  0  0  0
    0.0000   -0.0000    0.0000 C   0  0  0  0  0  0  0  0  0  0  0  0
    1.6000   -0.0000    0.0000 C   0  0  0  0  0  0  0  0  0  0  0  0
    3.2000   -0.0000    0.0000 H   0  0  0  0  0  0  0  0  0  0  0  0
    2.4001    1.3856    0.0000 H   0  0  0  0  0  0  0  0  0  0  0  0
    2.4001   -1.3856    0.0000 H   0  0  0  0  0  0  0  0  0  0  0  0
   -0.7999   -1.3856    0.0000 C   0  0  0  0  0  0  0  0  0  0  0  0
    0.0000   -2.7713    0.0000 H   0  0  0  0  0  0  0  0  0  0  0  0
   -2.4001   -1.3856    0.0000 C   0  0  0  0  0  0  0  0  0  0  0  0
   -3.2000   -2.7713    0.0000 H   0  0  0  0  0  0  0  0  0  0  0  0
   -3.2000   -0.0000    0.0000 C   0  0  0  0  0  0  0  0  0  0  0  0
   -4.8000   -0.0000    0.0000 H   0  0  0  0  0  0  0  0  0  0  0  0
   -2.4001    1.3856    0.0000 C   0  0  0  0  0  0  0  0  0  0  0  0
   -3.2000    2.7713    0.0000 H   0  0  0  0  0  0  0  0  0  0  0  0
  1  2  1  0  0  0  0
  2  3  1  0  0  0  0
  3  4  1  0  0  0  0
  3  5  1  0  0  0  0
  3  6  1  0  0  0  0
  2  7  2  0  0  0  0
  7  8  1  0  0  0  0
  7  9  1  0  0  0  0
  9 10  1  0  0  0  0
  9 11  2  0  0  0  0
 11 12  1  0  0  0  0
 11 13  1  0  0  0  0
 13  1  2  0  0  0  0
 13 14  1  0  0  0  0
M  END
> <ChemID>
101005

> <source_casrn>
109-06-8

> <CAS>
109-06-8

> <SMILES>
Cc1cccc[n]1

> <NAME>
2-METHYLPYRIDINE

> <preferred_name>
2-Methylpyridine

> <iupac>
2-methylpyridine

> <MPID>
20071

> <dsstox_substance_id>
DTXSID9021899

> <Canonical_QSARr>
Cc1cccc[n]1

> <InChI_Code_QSARr>
InChI=1S/C6H7N/c1-6-4-2-3-5-7-6/h2-5H,1H3

> <InChI Key_QSARr>
BSKHPKMHTQYZBB-UHFFFAOYSA-N

> <Salt_Solvent>
?

> <BP>
129.3

$$$$
101009
  -INDIGO-08031720192D

 49 48  0  0  0  0  0  0  0  0999 V2000
    6.9282    0.8000    0.0000 O   0  0  0  0  0  0  0  0  0  0  0  0
    8.3140    0.0000    0.0000 C   0  0  0  0  0  0  0  0  0  0  0  0
    9.6997    0.8000    0.0000 C   0  0  0  0  0  0  0  0  0  0  0  0
   11.0850    0.0000    0.0000 C   0  0  0  0  0  0  0  0  0  0  0  0
   12.4708   -0.8000    0.0000 H   0  0  0  0  0  0  0  0  0  0  0  0
   12.4708    0.8000    0.0000 H   0  0  0  0  0  0  0  0  0  0  0  0
   11.0850   -1.6000    0.0000 H   0  0  0  0  0  0  0  0  0  0  0  0
    9.6997    2.4000    0.0000 C   0  0  0  0  0  0  0  0  0  0  0  0
   11.0850    3.2000    0.0000 H   0  0  0  0  0  0  0  0  0  0  0  0
    8.3140    3.2000    0.0000 H   0  0  0  0  0  0  0  0  0  0  0  0
    8.3140   -1.6000    0.0000 O   0  0  0  0  0  0  0  0  0  0  0  0
    5.5425    0.0000    0.0000 C   0  0  0  0  0  0  0  0  0  0  0  0
    6.1548   -1.4782    0.0000 H   0  0  0  0  0  0  0  0  0  0  0  0
    4.9301   -1.4782    0.0000 H   0  0  0  0  0  0  0  0  0  0  0  0
    4.1567    0.8000    0.0000 C   0  0  0  0  0  0  0  0  0  0  0  0
    3.5448    2.2782    0.0000 H   0  0  0  0  0  0  0  0  0  0  0  0
    4.7690    2.2782    0.0000 H   0  0  0  0  0  0  0  0  0  0  0  0
    2.7714    0.0000    0.0000 O   0  0  0  0  0  0  0  0  0  0  0  0
    1.3856    0.8000    0.0000 C   0  0  0  0  0  0  0  0  0  0  0  0
    0.7733    2.2782    0.0000 H   0  0  0  0  0  0  0  0  0  0  0  0
    1.9980    2.2782    0.0000 H   0  0  0  0  0  0  0  0  0  0  0  0
   -0.0001    0.0000    0.0000 C   0  0  0  0  0  0  0  0  0  0  0  0
    0.6122   -1.4782    0.0000 H   0  0  0  0  0  0  0  0  0  0  0  0
   -0.6124   -1.4782    0.0000 H   0  0  0  0  0  0  0  0  0  0  0  0
   -1.3859    0.8000    0.0000 O   0  0  0  0  0  0  0  0  0  0  0  0
   -2.7712    0.0000    0.0000 C   0  0  0  0  0  0  0  0  0  0  0  0
   -2.1589   -1.4782    0.0000 H   0  0  0  0  0  0  0  0  0  0  0  0
   -3.3835   -1.4782    0.0000 H   0  0  0  0  0  0  0  0  0  0  0  0
   -4.1569    0.8000    0.0000 C   0  0  0  0  0  0  0  0  0  0  0  0
   -4.7692    2.2782    0.0000 H   0  0  0  0  0  0  0  0  0  0  0  0
   -3.5446    2.2782    0.0000 H   0  0  0  0  0  0  0  0  0  0  0  0
   -5.5427    0.0000    0.0000 O   0  0  0  0  0  0  0  0  0  0  0  0
   -6.9280    0.8000    0.0000 C   0  0  0  0  0  0  0  0  0  0  0  0
   -7.5403    2.2782    0.0000 H   0  0  0  0  0  0  0  0  0  0  0  0
   -6.3161    2.2782    0.0000 H   0  0  0  0  0  0  0  0  0  0  0  0
   -8.3137    0.0000    0.0000 C   0  0  0  0  0  0  0  0  0  0  0  0
   -7.7014   -1.4782    0.0000 H   0  0  0  0  0  0  0  0  0  0  0  0
   -8.9261   -1.4782    0.0000 H   0  0  0  0  0  0  0  0  0  0  0  0
   -9.6995    0.8000    0.0000 O   0  0  0  0  0  0  0  0  0  0  0  0
  -11.0852    0.0000    0.0000 C   0  0  0  0  0  0  0  0  0  0  0  0
  -12.4710    0.8000    0.0000 C   0  0  0  0  0  0  0  0  0  0  0  0
  -13.8563    0.0000    0.0000 C   0  0  0  0  0  0  0  0  0  0  0  0
  -15.2420   -0.8000    0.0000 H   0  0  0  0  0  0  0  0  0  0  0  0
  -15.2420    0.8000    0.0000 H   0  0  0  0  0  0  0  0  0  0  0  0
  -13.8563   -1.6000    0.0000 H   0  0  0  0  0  0  0  0  0  0  0  0
  -12.4706    2.4000    0.0000 C   0  0  0  0  0  0  0  0  0  0  0  0
  -13.8563    3.2000    0.0000 H   0  0  0  0  0  0  0  0  0  0  0  0
  -11.0852    3.2000    0.0000 H   0  0  0  0  0  0  0  0  0  0  0  0
  -11.0852   -1.6000    0.0000 O   0  0  0  0  0  0  0  0  0  0  0  0
  1  2  1  0  0  0  0
  2  3  1  0  0  0  0
  3  4  1  0  0  0  0
  4  5  1  0  0  0  0
  4  6  1  0  0  0  0
  4  7  1  0  0  0  0
  3  8  2  0  0  0  0
  8  9  1  0  0  0  0
  8 10  1  0  0  0  0
  2 11  2  0  0  0  0
  1 12  1  0  0  0  0
 12 13  1  0  0  0  0
 12 14  1  0  0  0  0
 12 15  1  0  0  0  0
 15 16  1  0  0  0  0
 15 17  1  0  0  0  0
 15 18  1  0  0  0  0
 18 19  1  0  0  0  0
 19 20  1  0  0  0  0
 19 21  1  0  0  0  0
 19 22  1  0  0  0  0
 22 23  1  0  0  0  0
 22 24  1  0  0  0  0
 22 25  1  0  0  0  0
 25 26  1  0  0  0  0
 26 27  1  0  0  0  0
 26 28  1  0  0  0  0
 26 29  1  0  0  0  0
 29 30  1  0  0  0  0
 29 31  1  0  0  0  0
 29 32  1  0  0  0  0
 32 33  1  0  0  0  0
 33 34  1  0  0  0  0
 33 35  1  0  0  0  0
 33 36  1  0  0  0  0
 36 37  1  0  0  0  0
 36 38  1  0  0  0  0
 36 39  1  0  0  0  0
 39 40  1  0  0  0  0
 40 41  1  0  0  0  0
 41 42  1  0  0  0  0
 42 43  1  0  0  0  0
 42 44  1  0  0  0  0
 42 45  1  0  0  0  0
 41 46  2  0  0  0  0
 46 47  1  0  0  0  0
 46 48  1  0  0  0  0
 40 49  2  0  0  0  0
M  END
> <ChemID>
101009

> <source_casrn>
109-17-1

> <CAS>
109-17-1

> <SMILES>
CC(=C)C(=O)OCCOCCOCCOCCOC(=O)C(C)=C

> <NAME>
TETRAETHYLENEGLYCOL DIMETHACRYLATE

> <preferred_name>
Tetraethyleneglycol dimethacrylate

> <iupac>
oxybis(ethane-2,1-diyloxyethane-2,1-diyl) bis(2-methylprop-2-enoate)

> <MPID>
20075

> <dsstox_substance_id>
DTXSID6044515

> <Canonical_QSARr>
CC(=C)C(=O)OCCOCCOCCOCCOC(=O)C(C)=C

> <InChI_Code_QSARr>
InChI=1S/C16H26O7/c1-13(2)15(17)22-11-9-20-7-5-19-6-8-21-10-12-23-16(18)14(3)4/h1,3,5-12H2,2,4H3

> <InChI Key_QSARr>
LTHJXDSHSVNJKG-UHFFFAOYSA-N

> <Salt_Solvent>
?

> <BP>
220.0

$$$$
101013
  -INDIGO-08031720192D

 17 16  0  0  0  0  0  0  0  0999 V2000
    4.1569    0.8000    0.0000 O   0  0  0  0  0  0  0  0  0  0  0  0
    5.5426   -0.0000    0.0000 H   0  0  0  0  0  0  0  0  0  0  0  0
    2.7713   -0.0000    0.0000 C   0  0  0  0  0  0  0  0  0  0  0  0
    1.3857    0.8000    0.0000 C   0  0  0  0  0  0  0  0  0  0  0  0
    1.9980    2.2782    0.0000 H   0  0  0  0  0  0  0  0  0  0  0  0
    0.7734    2.2782    0.0000 H   0  0  0  0  0  0  0  0  0  0  0  0
   -0.0001   -0.0000    0.0000 C   0  0  0  0  0  0  0  0  0  0  0  0
   -0.6124   -1.4782    0.0000 H   0  0  0  0  0  0  0  0  0  0  0  0
    0.6122   -1.4782    0.0000 H   0  0  0  0  0  0  0  0  0  0  0  0
   -1.3857    0.8000    0.0000 C   0  0  0  0  0  0  0  0  0  0  0  0
   -0.7734    2.2782    0.0000 H   0  0  0  0  0  0  0  0  0  0  0  0
   -1.9980    2.2782    0.0000 H   0  0  0  0  0  0  0  0  0  0  0  0
   -2.7713   -0.0000    0.0000 C   0  0  0  0  0  0  0  0  0  0  0  0
   -4.1569   -0.8000    0.0000 H   0  0  0  0  0  0  0  0  0  0  0  0
   -4.1569    0.8000    0.0000 H   0  0  0  0  0  0  0  0  0  0  0  0
   -2.7713   -1.6000    0.0000 H   0  0  0  0  0  0  0  0  0  0  0  0
    2.7713   -1.6000    0.0000 O   0  0  0  0  0  0  0  0  0  0  0  0
  1  2  1  0  0  0  0
  1  3  1  0  0  0  0
  3  4  1  0  0  0  0
  4  5  1  0  0  0  0
  4  6  1  0  0  0  0
  4  7  1  0  0  0  0
  7  8  1  0  0  0  0
  7  9  1  0  0  0  0
  7 10  1  0  0  0  0
 10 11  1  0  0  0  0
 10 12  1  0  0  0  0
 10 13  1  0  0  0  0
 13 14  1  0  0  0  0
 13 15  1  0  0  0  0
 13 16  1  0  0  0  0
  3 17  2  0  0  0  0
M  END
> <ChemID>
101013

> <source_casrn>
109-52-4

> <CAS>
109-52-4

> <SMILES>
CCCCC(O)=O

> <NAME>
PENTANOIC ACID

> <preferred_name>
Pentanoic acid

> <iupac>
pentanoic acid

> <MPID>
20079

> <dsstox_substance_id>
DTXSID7021655

> <Canonical_QSARr>
CCCCC(O)=O

> <InChI_Code_QSARr>
InChI=1S/C5H10O2/c1-2-3-4-5(6)7/h2-4H2,1H3,(H,6,7)

> <InChI Key_QSARr>
NQPDZGIKBAWPEJ-UHFFFAOYSA-N

> <Salt_Solvent>
?

> <BP>
186.1

$$$$
101017
  -INDIGO-08031720192D

 19 18  0  0  0  0  0  0  0  0999 V2000
   -4.1798    0.6700    0.0000 C   0  0  0  0  0  0  0  0  0  0  0  0
   -4.1101   -0.9285    0.0000 H   0  0  0  0  0  0  0  0  0  0  0  0
   -5.2608   -0.5097    0.0000 H   0  0  0  0  0  0  0  0  0  0  0  0
   -2.6042    0.9479    0.0000 C   0  0  0  0  0  0  0  0  0  0  0  0
   -2.6739    2.5463    0.0000 H   0  0  0  0  0  0  0  0  0  0  0  0
   -1.3348    1.9219    0.0000 H   0  0  0  0  0  0  0  0  0  0  0  0
   -1.5758   -0.2778    0.0000 O   0  0  0  0  0  0  0  0  0  0  0  0
    0.0000   -0.0000    0.0000 C   0  0  0  0  0  0  0  0  0  0  0  0
    1.5999   -0.0000    0.0000 H   0  0  0  0  0  0  0  0  0  0  0  0
    0.5472    1.5035    0.0000 C   0  0  0  0  0  0  0  0  0  0  0  0
    1.0945    3.0070    0.0000 H   0  0  0  0  0  0  0  0  0  0  0  0
   -0.4813    2.7292    0.0000 H   0  0  0  0  0  0  0  0  0  0  0  0
    2.1229    1.7813    0.0000 H   0  0  0  0  0  0  0  0  0  0  0  0
    0.0000   -1.6000    0.0000 C   0  0  0  0  0  0  0  0  0  0  0  0
    0.0000   -3.2000    0.0000 H   0  0  0  0  0  0  0  0  0  0  0  0
    1.3856   -2.4000    0.0000 H   0  0  0  0  0  0  0  0  0  0  0  0
   -1.3856   -2.4000    0.0000 H   0  0  0  0  0  0  0  0  0  0  0  0
   -5.2082    1.8957    0.0000 O   0  0  0  0  0  0  0  0  0  0  0  0
   -6.7840    1.6179    0.0000 H   0  0  0  0  0  0  0  0  0  0  0  0
  1  2  1  0  0  0  0
  1  3  1  0  0  0  0
  1  4  1  0  0  0  0
  4  5  1  0  0  0  0
  4  6  1  0  0  0  0
  4  7  1  0  0  0  0
  7  8  1  0  0  0  0
  8  9  1  0  0  0  0
  8 10  1  0  0  0  0
 10 11  1  0  0  0  0
 10 12  1  0  0  0  0
 10 13  1  0  0  0  0
  8 14  1  0  0  0  0
 14 15  1  0  0  0  0
 14 16  1  0  0  0  0
 14 17  1  0  0  0  0
  1 18  1  0  0  0  0
 18 19  1  0  0  0  0
M  END
> <ChemID>
101017

> <source_casrn>
109-59-1

> <CAS>
109-59-1

> <SMILES>
CC(C)OCCO

> <NAME>
2-Isopropoxyethanol

> <preferred_name>
2-Isopropoxyethanol

> <iupac>
C5H12O2

> <MPID>
20083

> <dsstox_substance_id>
DTXSID4047466

> <Canonical_QSARr>
CC(C)OCCO

> <InChI_Code_QSARr>
InChI=1S/C5H12O2/c1-5(2)7-4-3-6/h5-6H,3-4H2,1-2H3

> <InChI Key_QSARr>
HCGFUIQPSOCUHI-UHFFFAOYSA-N

> <Salt_Solvent>
?

> <BP>
145.0

$$$$
101022
  -INDIGO-08031720192D

 14 13  0  0  0  0  0  0  0  0999 V2000
    1.3856   -2.4000    0.0000 Br  0  0  0  0  0  0  0  0  0  0  0  0
    1.3856   -0.8000    0.0000 C   0  0  0  0  0  0  0  0  0  0  0  0
    2.7713   -1.6000    0.0000 H   0  0  0  0  0  0  0  0  0  0  0  0
    2.7713    0.0000    0.0000 H   0  0  0  0  0  0  0  0  0  0  0  0
    0.0000    0.0000    0.0000 C   0  0  0  0  0  0  0  0  0  0  0  0
    0.6123    1.4782    0.0000 H   0  0  0  0  0  0  0  0  0  0  0  0
   -0.6123    1.4782    0.0000 H   0  0  0  0  0  0  0  0  0  0  0  0
   -1.3856   -0.8000    0.0000 C   0  0  0  0  0  0  0  0  0  0  0  0
   -1.9980   -2.2782    0.0000 H   0  0  0  0  0  0  0  0  0  0  0  0
   -0.7733   -2.2782    0.0000 H   0  0  0  0  0  0  0  0  0  0  0  0
   -2.7713    0.0000    0.0000 C   0  0  0  0  0  0  0  0  0  0  0  0
   -4.1569    0.8000    0.0000 H   0  0  0  0  0  0  0  0  0  0  0  0
   -4.1569   -0.8000    0.0000 H   0  0  0  0  0  0  0  0  0  0  0  0
   -2.7713    1.6000    0.0000 H   0  0  0  0  0  0  0  0  0  0  0  0
  1  2  1  0  0  0  0
  2  3  1  0  0  0  0
  2  4  1  0  0  0  0
  2  5  1  0  0  0  0
  5  6  1  0  0  0  0
  5  7  1  0  0  0  0
  5  8  1  0  0  0  0
  8  9  1  0  0  0  0
  8 10  1  0  0  0  0
  8 11  1  0  0  0  0
 11 12  1  0  0  0  0
 11 13  1  0  0  0  0
 11 14  1  0  0  0  0
M  END
> <ChemID>
101022

> <source_casrn>
109-65-9

> <CAS>
109-65-9

> <SMILES>
CCCCBr

> <NAME>
1-BROMOBUTANE

> <preferred_name>
1-Bromobutane

> <iupac>
1-bromobutane

> <MPID>
20087

> <dsstox_substance_id>
DTXSID6021903

> <Canonical_QSARr>
CCCCBr

> <InChI_Code_QSARr>
InChI=1S/C4H9Br/c1-2-3-4-5/h2-4H2,1H3

> <InChI Key_QSARr>
MPPPKRYCTPRNTB-UHFFFAOYSA-N

> <Salt_Solvent>
?

> <BP>
101.3

$$$$
101026
  -INDIGO-08031720192D

 14 13  0  0  0  0  0  0  0  0999 V2000
    1.3856   -0.8000    0.0000 C   0  0  0  0  0  0  0  0  0  0  0  0
    2.7713   -1.6000    0.0000 H   0  0  0  0  0  0  0  0  0  0  0  0
    2.7713    0.0000    0.0000 H   0  0  0  0  0  0  0  0  0  0  0  0
    1.3856   -2.4000    0.0000 H   0  0  0  0  0  0  0  0  0  0  0  0
    0.0000    0.0000    0.0000 C   0  0  0  0  0  0  0  0  0  0  0  0
    0.6123    1.4782    0.0000 H   0  0  0  0  0  0  0  0  0  0  0  0
   -0.6123    1.4782    0.0000 H   0  0  0  0  0  0  0  0  0  0  0  0
   -1.3856   -0.8000    0.0000 C   0  0  0  0  0  0  0  0  0  0  0  0
   -1.9980   -2.2782    0.0000 H   0  0  0  0  0  0  0  0  0  0  0  0
   -0.7733   -2.2782    0.0000 H   0  0  0  0  0  0  0  0  0  0  0  0
   -2.7713    0.0000    0.0000 C   0  0  0  0  0  0  0  0  0  0  0  0
   -4.1569    0.8000    0.0000 H   0  0  0  0  0  0  0  0  0  0  0  0
   -4.1569   -0.8000    0.0000 H   0  0  0  0  0  0  0  0  0  0  0  0
   -2.7713    1.6000    0.0000 Cl  0  0  0  0  0  0  0  0  0  0  0  0
  1  2  1  0  0  0  0
  1  3  1  0  0  0  0
  1  4  1  0  0  0  0
  1  5  1  0  0  0  0
  5  6  1  0  0  0  0
  5  7  1  0  0  0  0
  5  8  1  0  0  0  0
  8  9  1  0  0  0  0
  8 10  1  0  0  0  0
  8 11  1  0  0  0  0
 11 12  1  0  0  0  0
 11 13  1  0  0  0  0
 11 14  1  0  0  0  0
M  END
> <ChemID>
101026

> <source_casrn>
109-69-3

> <CAS>
109-69-3

> <SMILES>
CCCCCl

> <NAME>
1-CHLOROBUTANE

> <preferred_name>
1-Chlorobutane

> <iupac>
1-chlorobutane

> <MPID>
20091

> <dsstox_substance_id>
DTXSID8020206

> <Canonical_QSARr>
CCCCCl

> <InChI_Code_QSARr>
InChI=1S/C4H9Cl/c1-2-3-4-5/h2-4H2,1H3

> <InChI Key_QSARr>
VFWCMGCRMGJXDK-UHFFFAOYSA-N

> <Salt_Solvent>
?

> <BP>
78.6

$$$$
101030
  -INDIGO-08031720192D

 10  9  0  0  0  0  0  0  0  0999 V2000
    2.7713    0.0000    0.0000 C   0  0  0  0  0  0  0  0  0  0  0  0
    4.1569    0.8000    0.0000 H   0  0  0  0  0  0  0  0  0  0  0  0
    2.7713   -1.6000    0.0000 H   0  0  0  0  0  0  0  0  0  0  0  0
    1.3856    0.8000    0.0000 C   0  0  0  0  0  0  0  0  0  0  0  0
    1.3856    2.4000    0.0000 H   0  0  0  0  0  0  0  0  0  0  0  0
    0.0000    0.0000    0.0000 C   0  0  0  0  0  0  0  0  0  0  0  0
    0.6123   -1.4782    0.0000 H   0  0  0  0  0  0  0  0  0  0  0  0
   -0.6123   -1.4782    0.0000 H   0  0  0  0  0  0  0  0  0  0  0  0
   -1.3856    0.8000    0.0000 C   0  0  0  0  0  0  0  0  0  0  0  0
   -2.7713    1.6000    0.0000 N   0  0  0  0  0  0  0  0  0  0  0  0
  1  2  1  0  0  0  0
  1  3  1  0  0  0  0
  1  4  2  0  0  0  0
  4  5  1  0  0  0  0
  4  6  1  0  0  0  0
  6  7  1  0  0  0  0
  6  8  1  0  0  0  0
  6  9  1  0  0  0  0
  9 10  3  0  0  0  0
M  END
> <ChemID>
101030

> <source_casrn>
109-75-1

> <CAS>
109-75-1

> <SMILES>
C=CCC#N

> <NAME>
3-BUTENENITRILE

> <preferred_name>
Allyl cyanide

> <iupac>
but-3-enenitrile

> <MPID>
20095

> <dsstox_substance_id>
DTXSID6021905

> <Canonical_QSARr>
C=CCC#N

> <InChI_Code_QSARr>
InChI=1S/C4H5N/c1-2-3-4-5/h2H,1,3H2

> <InChI Key_QSARr>
SJNALLRHIVGIBI-UHFFFAOYSA-N

> <Salt_Solvent>
?

> <BP>
119.0

$$$$
101034
  -INDIGO-08031720192D

 15 14  0  0  0  0  0  0  0  0999 V2000
    1.3856    0.8000    0.0000 C   0  0  0  0  0  0  0  0  0  0  0  0
    1.9979    2.2782    0.0000 H   0  0  0  0  0  0  0  0  0  0  0  0
    0.7734    2.2782    0.0000 H   0  0  0  0  0  0  0  0  0  0  0  0
    0.0001   -0.0000    0.0000 C   0  0  0  0  0  0  0  0  0  0  0  0
   -0.6123   -1.4782    0.0000 H   0  0  0  0  0  0  0  0  0  0  0  0
    0.6123   -1.4782    0.0000 H   0  0  0  0  0  0  0  0  0  0  0  0
   -1.3856    0.8000    0.0000 C   0  0  0  0  0  0  0  0  0  0  0  0
   -0.7734    2.2782    0.0000 H   0  0  0  0  0  0  0  0  0  0  0  0
   -1.9979    2.2782    0.0000 H   0  0  0  0  0  0  0  0  0  0  0  0
   -2.7712   -0.0000    0.0000 C   0  0  0  0  0  0  0  0  0  0  0  0
   -4.1569   -0.8000    0.0000 H   0  0  0  0  0  0  0  0  0  0  0  0
   -4.1569    0.8000    0.0000 H   0  0  0  0  0  0  0  0  0  0  0  0
   -2.7713   -1.6000    0.0000 H   0  0  0  0  0  0  0  0  0  0  0  0
    2.7713   -0.0000    0.0000 S   0  0  0  0  0  0  0  0  0  0  0  0
    4.1569    0.8000    0.0000 H   0  0  0  0  0  0  0  0  0  0  0  0
  1  2  1  0  0  0  0
  1  3  1  0  0  0  0
  1  4  1  0  0  0  0
  4  5  1  0  0  0  0
  4  6  1  0  0  0  0
  4  7  1  0  0  0  0
  7  8  1  0  0  0  0
  7  9  1  0  0  0  0
  7 10  1  0  0  0  0
 10 11  1  0  0  0  0
 10 12  1  0  0  0  0
 10 13  1  0  0  0  0
  1 14  1  0  0  0  0
 14 15  1  0  0  0  0
M  END
> <ChemID>
101034

> <source_casrn>
109-79-5

> <CAS>
109-79-5

> <SMILES>
CCCCS

> <NAME>
BUTANETHIOL

> <preferred_name>
1-Butanethiol

> <iupac>
butane-1-thiol

> <MPID>
20099

> <dsstox_substance_id>
DTXSID6026824

> <Canonical_QSARr>
CCCCS

> <InChI_Code_QSARr>
InChI=1S/C4H10S/c1-2-3-4-5/h5H,2-4H2,1H3

> <InChI Key_QSARr>
WQAQPCDUOCURKW-UHFFFAOYSA-N

> <Salt_Solvent>
?

> <BP>
98.5

$$$$
101038
  -INDIGO-08031720192D

 13 12  0  0  0  0  0  0  0  0999 V2000
    2.7713    0.0000    0.0000 O   0  0  0  0  0  0  0  0  0  0  0  0
    4.1569    0.8000    0.0000 H   0  0  0  0  0  0  0  0  0  0  0  0
    1.3856    0.8000    0.0000 C   0  0  0  0  0  0  0  0  0  0  0  0
    0.7734    2.2782    0.0000 H   0  0  0  0  0  0  0  0  0  0  0  0
    1.9979    2.2782    0.0000 H   0  0  0  0  0  0  0  0  0  0  0  0
    0.0001    0.0000    0.0000 C   0  0  0  0  0  0  0  0  0  0  0  0
    0.6123   -1.4782    0.0000 H   0  0  0  0  0  0  0  0  0  0  0  0
   -0.6123   -1.4782    0.0000 H   0  0  0  0  0  0  0  0  0  0  0  0
   -1.3856    0.8000    0.0000 N   0  0  0  0  0  0  0  0  0  0  0  0
   -1.3856    2.4000    0.0000 H   0  0  0  0  0  0  0  0  0  0  0  0
   -2.7713    0.0000    0.0000 N   0  0  0  0  0  0  0  0  0  0  0  0
   -4.1569    0.8000    0.0000 H   0  0  0  0  0  0  0  0  0  0  0  0
   -2.7712   -1.6000    0.0000 H   0  0  0  0  0  0  0  0  0  0  0  0
  1  2  1  0  0  0  0
  1  3  1  0  0  0  0
  3  4  1  0  0  0  0
  3  5  1  0  0  0  0
  3  6  1  0  0  0  0
  6  7  1  0  0  0  0
  6  8  1  0  0  0  0
  6  9  1  0  0  0  0
  9 10  1  0  0  0  0
  9 11  1  0  0  0  0
 11 12  1  0  0  0  0
 11 13  1  0  0  0  0
M  END
> <ChemID>
101038

> <source_casrn>
109-84-2

> <CAS>
109-84-2

> <SMILES>
NNCCO

> <NAME>
Ethanol, 2-hydrazino-

> <preferred_name>
2-Hydroxyethylhydrazine

> <iupac>
2-hydrazinylethanol

> <MPID>
20103

> <dsstox_substance_id>
DTXSID1020728

> <Canonical_QSARr>
NNCCO

> <InChI_Code_QSARr>
InChI=1S/C2H8N2O/c3-4-1-2-5/h4-5H,1-3H2

> <InChI Key_QSARr>
GBHCABUWWQUMAJ-UHFFFAOYSA-N

> <Salt_Solvent>
?

> <BP>
219.0

$$$$
101042
  -INDIGO-08031720192D

 16 15  0  0  0  0  0  0  0  0999 V2000
    1.3856    0.8000    0.0000 C   0  0  0  0  0  0  0  0  0  0  0  0
    2.7713    1.6000    0.0000 H   0  0  0  0  0  0  0  0  0  0  0  0
    2.7713    0.0000    0.0000 H   0  0  0  0  0  0  0  0  0  0  0  0
    1.3856    2.4000    0.0000 H   0  0  0  0  0  0  0  0  0  0  0  0
    0.0000    0.0000    0.0000 C   0  0  0  0  0  0  0  0  0  0  0  0
   -0.6122   -1.4782    0.0000 H   0  0  0  0  0  0  0  0  0  0  0  0
    0.6122   -1.4782    0.0000 H   0  0  0  0  0  0  0  0  0  0  0  0
   -1.3857    0.8000    0.0000 N   0  0  0  0  0  0  0  0  0  0  0  0
   -1.3857    2.4000    0.0000 H   0  0  0  0  0  0  0  0  0  0  0  0
   -2.7713    0.0000    0.0000 C   0  0  0  0  0  0  0  0  0  0  0  0
   -3.3835   -1.4782    0.0000 H   0  0  0  0  0  0  0  0  0  0  0  0
   -2.1590   -1.4782    0.0000 H   0  0  0  0  0  0  0  0  0  0  0  0
   -4.1569    0.8000    0.0000 C   0  0  0  0  0  0  0  0  0  0  0  0
   -5.5426    1.6000    0.0000 H   0  0  0  0  0  0  0  0  0  0  0  0
   -5.5426    0.0000    0.0000 H   0  0  0  0  0  0  0  0  0  0  0  0
   -4.1569    2.4000    0.0000 H   0  0  0  0  0  0  0  0  0  0  0  0
  1  2  1  0  0  0  0
  1  3  1  0  0  0  0
  1  4  1  0  0  0  0
  1  5  1  0  0  0  0
  5  6  1  0  0  0  0
  5  7  1  0  0  0  0
  5  8  1  0  0  0  0
  8  9  1  0  0  0  0
  8 10  1  0  0  0  0
 10 11  1  0  0  0  0
 10 12  1  0  0  0  0
 10 13  1  0  0  0  0
 13 14  1  0  0  0  0
 13 15  1  0  0  0  0
 13 16  1  0  0  0  0
M  END
> <ChemID>
101042

> <source_casrn>
109-89-7

> <CAS>
109-89-7

> <SMILES>
CCNCC

> <NAME>
DIETHYLAMINE

> <preferred_name>
Diethylamine

> <iupac>
N-ethylethanamine

> <MPID>
20107

> <dsstox_substance_id>
DTXSID6021909

> <Canonical_QSARr>
CCNCC

> <InChI_Code_QSARr>
InChI=1S/C4H11N/c1-3-5-4-2/h5H,3-4H2,1-2H3

> <InChI Key_QSARr>
HPNMFZURTQLUMO-UHFFFAOYSA-N

> <Salt_Solvent>
?

> <BP>
55.5

$$$$
101046
  -INDIGO-08031720192D

 11 10  0  0  0  0  0  0  0  0999 V2000
    2.7713    0.0000    0.0000 C   0  0  0  0  0  0  0  0  0  0  0  0
    4.1569    0.8000    0.0000 H   0  0  0  0  0  0  0  0  0  0  0  0
    2.7713   -1.6000    0.0000 O   0  0  0  0  0  0  0  0  0  0  0  0
    1.3856    0.8000    0.0000 O   0  0  0  0  0  0  0  0  0  0  0  0
    0.0000    0.0000    0.0000 C   0  0  0  0  0  0  0  0  0  0  0  0
   -0.6123   -1.4782    0.0000 H   0  0  0  0  0  0  0  0  0  0  0  0
    0.6123   -1.4782    0.0000 H   0  0  0  0  0  0  0  0  0  0  0  0
   -1.3856    0.8000    0.0000 C   0  0  0  0  0  0  0  0  0  0  0  0
   -2.7713    1.6000    0.0000 H   0  0  0  0  0  0  0  0  0  0  0  0
   -2.7713    0.0000    0.0000 H   0  0  0  0  0  0  0  0  0  0  0  0
   -1.3856    2.4000    0.0000 H   0  0  0  0  0  0  0  0  0  0  0  0
  1  2  1  0  0  0  0
  1  3  2  0  0  0  0
  1  4  1  0  0  0  0
  4  5  1  0  0  0  0
  5  6  1  0  0  0  0
  5  7  1  0  0  0  0
  5  8  1  0  0  0  0
  8  9  1  0  0  0  0
  8 10  1  0  0  0  0
  8 11  1  0  0  0  0
M  END
> <ChemID>
101046

> <source_casrn>
109-94-4

> <CAS>
109-94-4

> <SMILES>
CCOC=O

> <NAME>
ETHYL FORMATE

> <preferred_name>
Ethyl formate

> <iupac>
ethyl formate

> <MPID>
20111

> <dsstox_substance_id>
DTXSID6040117

> <Canonical_QSARr>
CCOC=O

> <InChI_Code_QSARr>
InChI=1S/C3H6O2/c1-2-5-3-4/h3H,2H2,1H3

> <InChI Key_QSARr>
WBJINCZRORDGAQ-UHFFFAOYSA-N

> <Salt_Solvent>
?

> <BP>
54.4

$$$$
101050
  -INDIGO-08031720192D

 11 11  0  0  0  0  0  0  0  0999 V2000
    1.0530    2.3650    0.0000 N   0  0  0  0  0  0  0  0  0  0  0  0
    2.2420    1.2944    0.0000 N   0  0  0  0  0  0  0  0  0  0  0  0
    3.8070    1.6271    0.0000 H   0  0  0  0  0  0  0  0  0  0  0  0
    1.5912   -0.1673    0.0000 C   0  0  0  0  0  0  0  0  0  0  0  0
    3.1129   -0.6617    0.0000 H   0  0  0  0  0  0  0  0  0  0  0  0
    1.2585   -1.7323    0.0000 H   0  0  0  0  0  0  0  0  0  0  0  0
   -0.0000   -0.0000    0.0000 C   0  0  0  0  0  0  0  0  0  0  0  0
   -0.0000   -1.6000    0.0000 H   0  0  0  0  0  0  0  0  0  0  0  0
   -1.5913   -0.1673    0.0000 H   0  0  0  0  0  0  0  0  0  0  0  0
   -0.3327    1.5650    0.0000 C   0  0  0  0  0  0  0  0  0  0  0  0
   -1.7943    2.2158    0.0000 H   0  0  0  0  0  0  0  0  0  0  0  0
  1  2  1  0  0  0  0
  2  3  1  0  0  0  0
  2  4  1  0  0  0  0
  4  5  1  0  0  0  0
  4  6  1  0  0  0  0
  4  7  1  0  0  0  0
  7  8  1  0  0  0  0
  7  9  1  0  0  0  0
  7 10  1  0  0  0  0
 10  1  2  0  0  0  0
 10 11  1  0  0  0  0
M  END
> <ChemID>
101050

> <source_casrn>
109-98-8

> <CAS>
NOCAS_870460

> <SMILES>
C1CNN=C1

> <NAME>
4,5-DIHYDRO-1H-PYRAZOLE

> <preferred_name>


> <iupac>


> <MPID>
20115

> <dsstox_substance_id>
DTXSID80870460

> <Canonical_QSARr>
C1CNN=C1

> <InChI_Code_QSARr>
InChI=1S/C3H6N2/c1-2-4-5-3-1/h2,5H,1,3H2

> <InChI Key_QSARr>
MCGBIXXDQFWVDW-UHFFFAOYSA-N

> <Salt_Solvent>
?

> <BP>
144.0

$$$$
101054
  -INDIGO-08031720192D

  9  9  0  0  0  0  0  0  0  0999 V2000
    0.0000   -0.0000    0.0000 C   0  0  0  0  0  0  0  0  0  0  0  0
    0.9405    1.2944    0.0000 H   0  0  0  0  0  0  0  0  0  0  0  0
    0.4944   -1.5217    0.0000 C   0  0  0  0  0  0  0  0  0  0  0  0
    2.0161   -2.0161    0.0000 H   0  0  0  0  0  0  0  0  0  0  0  0
   -0.8000   -2.4621    0.0000 S   0  0  0  0  0  0  0  0  0  0  0  0
   -2.0944   -1.5217    0.0000 C   0  0  0  0  0  0  0  0  0  0  0  0
   -3.6161   -2.0161    0.0000 H   0  0  0  0  0  0  0  0  0  0  0  0
   -1.6000   -0.0000    0.0000 C   0  0  0  0  0  0  0  0  0  0  0  0
   -2.5405    1.2944    0.0000 H   0  0  0  0  0  0  0  0  0  0  0  0
  1  2  1  0  0  0  0
  1  3  2  0  0  0  0
  3  4  1  0  0  0  0
  3  5  1  0  0  0  0
  5  6  1  0  0  0  0
  6  7  1  0  0  0  0
  6  8  2  0  0  0  0
  8  1  1  0  0  0  0
  8  9  1  0  0  0  0
M  END
> <ChemID>
101054

> <source_casrn>
110-02-1

> <CAS>
110-02-1

> <SMILES>
c1ccc[s]1

> <NAME>
THIOPHENE

> <preferred_name>
Thiophene

> <iupac>
thiophene

> <MPID>
20119

> <dsstox_substance_id>
DTXSID8026145

> <Canonical_QSARr>
c1ccc[s]1

> <InChI_Code_QSARr>
InChI=1S/C4H4S/c1-2-4-5-3-1/h1-4H

> <InChI Key_QSARr>
YTPLMLYBLZKORZ-UHFFFAOYSA-N

> <Salt_Solvent>
?

> <BP>
84.0

$$$$
101058
  -INDIGO-08031720192D

 18 17  0  0  0  0  0  0  0  0999 V2000
    2.7713    0.0000    0.0000 C   0  0  0  0  0  0  0  0  0  0  0  0
    4.1569    0.8000    0.0000 H   0  0  0  0  0  0  0  0  0  0  0  0
    4.1569   -0.8000    0.0000 H   0  0  0  0  0  0  0  0  0  0  0  0
    2.7713    1.6000    0.0000 H   0  0  0  0  0  0  0  0  0  0  0  0
    1.3857   -0.8000    0.0000 C   0  0  0  0  0  0  0  0  0  0  0  0
    0.0001    0.0000    0.0000 C   0  0  0  0  0  0  0  0  0  0  0  0
    0.6124    1.4782    0.0000 H   0  0  0  0  0  0  0  0  0  0  0  0
   -0.6122    1.4782    0.0000 H   0  0  0  0  0  0  0  0  0  0  0  0
   -1.3857   -0.8000    0.0000 C   0  0  0  0  0  0  0  0  0  0  0  0
   -1.9980   -2.2782    0.0000 H   0  0  0  0  0  0  0  0  0  0  0  0
   -0.7734   -2.2782    0.0000 H   0  0  0  0  0  0  0  0  0  0  0  0
   -2.7713    0.0000    0.0000 C   0  0  0  0  0  0  0  0  0  0  0  0
   -4.1569   -0.8000    0.0000 C   0  0  0  0  0  0  0  0  0  0  0  0
   -5.5426   -1.6000    0.0000 H   0  0  0  0  0  0  0  0  0  0  0  0
   -5.5426    0.0000    0.0000 H   0  0  0  0  0  0  0  0  0  0  0  0
   -4.1569   -2.4000    0.0000 H   0  0  0  0  0  0  0  0  0  0  0  0
   -2.7713    1.6000    0.0000 O   0  0  0  0  0  0  0  0  0  0  0  0
    1.3857   -2.4000    0.0000 O   0  0  0  0  0  0  0  0  0  0  0  0
  1  2  1  0  0  0  0
  1  3  1  0  0  0  0
  1  4  1  0  0  0  0
  1  5  1  0  0  0  0
  5  6  1  0  0  0  0
  6  7  1  0  0  0  0
  6  8  1  0  0  0  0
  6  9  1  0  0  0  0
  9 10  1  0  0  0  0
  9 11  1  0  0  0  0
  9 12  1  0  0  0  0
 12 13  1  0  0  0  0
 13 14  1  0  0  0  0
 13 15  1  0  0  0  0
 13 16  1  0  0  0  0
 12 17  2  0  0  0  0
  5 18  2  0  0  0  0
M  END
> <ChemID>
101058

> <source_casrn>
110-13-4

> <CAS>
110-13-4

> <SMILES>
CC(=O)CCC(C)=O

> <NAME>
2,5-HEXANEDIONE

> <preferred_name>
2,5-Hexanedione

> <iupac>
hexane-2,5-dione

> <MPID>
20123

> <dsstox_substance_id>
DTXSID8030138

> <Canonical_QSARr>
CC(=O)CCC(C)=O

> <InChI_Code_QSARr>
InChI=1S/C6H10O2/c1-5(7)3-4-6(2)8/h3-4H2,1-2H3

> <InChI Key_QSARr>
OJVAMHKKJGICOG-UHFFFAOYSA-N

> <Salt_Solvent>
?

> <BP>
194.0

$$$$
101062
  -INDIGO-08031720192D

 38 37  0  0  0  0  0  0  0  0999 V2000
   -5.5427    0.0000    0.0000 O   0  0  0  0  0  0  0  0  0  0  0  0
   -4.1570    0.8000    0.0000 C   0  0  0  0  0  0  0  0  0  0  0  0
   -4.7692    2.2782    0.0000 H   0  0  0  0  0  0  0  0  0  0  0  0
   -3.5446    2.2782    0.0000 H   0  0  0  0  0  0  0  0  0  0  0  0
   -2.7711    0.0000    0.0000 C   0  0  0  0  0  0  0  0  0  0  0  0
   -2.1590   -1.4782    0.0000 H   0  0  0  0  0  0  0  0  0  0  0  0
   -3.3836   -1.4782    0.0000 H   0  0  0  0  0  0  0  0  0  0  0  0
   -1.3855    0.8000    0.0000 C   0  0  0  0  0  0  0  0  0  0  0  0
   -1.9980    2.2782    0.0000 H   0  0  0  0  0  0  0  0  0  0  0  0
   -0.7734    2.2782    0.0000 H   0  0  0  0  0  0  0  0  0  0  0  0
    0.0001    0.0000    0.0000 C   0  0  0  0  0  0  0  0  0  0  0  0
    0.6123   -1.4782    0.0000 H   0  0  0  0  0  0  0  0  0  0  0  0
   -0.6123   -1.4782    0.0000 H   0  0  0  0  0  0  0  0  0  0  0  0
    1.3857    0.8000    0.0000 C   0  0  0  0  0  0  0  0  0  0  0  0
    0.7733    2.2782    0.0000 H   0  0  0  0  0  0  0  0  0  0  0  0
    1.9979    2.2782    0.0000 H   0  0  0  0  0  0  0  0  0  0  0  0
    2.7713    0.0000    0.0000 C   0  0  0  0  0  0  0  0  0  0  0  0
    3.3835   -1.4782    0.0000 H   0  0  0  0  0  0  0  0  0  0  0  0
    2.1589   -1.4782    0.0000 H   0  0  0  0  0  0  0  0  0  0  0  0
    4.1570    0.8000    0.0000 C   0  0  0  0  0  0  0  0  0  0  0  0
    3.5445    2.2782    0.0000 H   0  0  0  0  0  0  0  0  0  0  0  0
    4.7691    2.2782    0.0000 H   0  0  0  0  0  0  0  0  0  0  0  0
    5.5426    0.0000    0.0000 C   0  0  0  0  0  0  0  0  0  0  0  0
    6.9282   -0.8000    0.0000 H   0  0  0  0  0  0  0  0  0  0  0  0
    6.9282    0.8000    0.0000 H   0  0  0  0  0  0  0  0  0  0  0  0
    5.5426   -1.6000    0.0000 H   0  0  0  0  0  0  0  0  0  0  0  0
   -6.9283    0.8000    0.0000 C   0  0  0  0  0  0  0  0  0  0  0  0
   -8.3139    0.0000    0.0000 C   0  0  0  0  0  0  0  0  0  0  0  0
   -7.7015   -1.4782    0.0000 H   0  0  0  0  0  0  0  0  0  0  0  0
   -8.9261   -1.4782    0.0000 H   0  0  0  0  0  0  0  0  0  0  0  0
   -9.6995    0.8000    0.0000 C   0  0  0  0  0  0  0  0  0  0  0  0
  -10.3117    2.2782    0.0000 H   0  0  0  0  0  0  0  0  0  0  0  0
   -9.0871    2.2782    0.0000 H   0  0  0  0  0  0  0  0  0  0  0  0
  -11.0851    0.0000    0.0000 C   0  0  0  0  0  0  0  0  0  0  0  0
  -12.4708   -0.8000    0.0000 H   0  0  0  0  0  0  0  0  0  0  0  0
  -12.4708    0.8000    0.0000 H   0  0  0  0  0  0  0  0  0  0  0  0
  -11.0851   -1.6000    0.0000 H   0  0  0  0  0  0  0  0  0  0  0  0
   -6.9283    2.4000    0.0000 O   0  0  0  0  0  0  0  0  0  0  0  0
  1  2  1  0  0  0  0
  2  3  1  0  0  0  0
  2  4  1  0  0  0  0
  2  5  1  0  0  0  0
  5  6  1  0  0  0  0
  5  7  1  0  0  0  0
  5  8  1  0  0  0  0
  8  9  1  0  0  0  0
  8 10  1  0  0  0  0
  8 11  1  0  0  0  0
 11 12  1  0  0  0  0
 11 13  1  0  0  0  0
 11 14  1  0  0  0  0
 14 15  1  0  0  0  0
 14 16  1  0  0  0  0
 14 17  1  0  0  0  0
 17 18  1  0  0  0  0
 17 19  1  0  0  0  0
 17 20  1  0  0  0  0
 20 21  1  0  0  0  0
 20 22  1  0  0  0  0
 20 23  1  0  0  0  0
 23 24  1  0  0  0  0
 23 25  1  0  0  0  0
 23 26  1  0  0  0  0
  1 27  1  0  0  0  0
 27 28  1  0  0  0  0
 28 29  1  0  0  0  0
 28 30  1  0  0  0  0
 28 31  1  0  0  0  0
 31 32  1  0  0  0  0
 31 33  1  0  0  0  0
 31 34  1  0  0  0  0
 34 35  1  0  0  0  0
 34 36  1  0  0  0  0
 34 37  1  0  0  0  0
 27 38  2  0  0  0  0
M  END
> <ChemID>
101062

> <source_casrn>
110-39-4

> <CAS>
110-39-4

> <SMILES>
CCCCCCCCOC(=O)CCC

> <NAME>
Butanoic acid, octyl ester

> <preferred_name>
Butanoic acid, octyl ester

> <iupac>
Octyl butanoate

> <MPID>
20127

> <dsstox_substance_id>
DTXSID9059387

> <Canonical_QSARr>
CCCCCCCCOC(=O)CCC

> <InChI_Code_QSARr>
InChI=1S/C12H24O2/c1-3-5-6-7-8-9-11-14-12(13)10-4-2/h3-11H2,1-2H3

> <InChI Key_QSARr>
PWLNAUNEAKQYLH-UHFFFAOYSA-N

> <Salt_Solvent>
?

> <BP>
244.1

$$$$
101066
  -INDIGO-08031720192D

 22 21  0  0  0  0  0  0  0  0999 V2000
    2.7713    0.0000    0.0000 C   0  0  0  0  0  0  0  0  0  0  0  0
    4.1569   -0.8000    0.0000 H   0  0  0  0  0  0  0  0  0  0  0  0
    4.1569    0.8000    0.0000 H   0  0  0  0  0  0  0  0  0  0  0  0
    2.7713   -1.6000    0.0000 H   0  0  0  0  0  0  0  0  0  0  0  0
    1.3856    0.8000    0.0000 C   0  0  0  0  0  0  0  0  0  0  0  0
    1.9979    2.2782    0.0000 H   0  0  0  0  0  0  0  0  0  0  0  0
    0.7733    2.2782    0.0000 H   0  0  0  0  0  0  0  0  0  0  0  0
   -0.0001    0.0000    0.0000 C   0  0  0  0  0  0  0  0  0  0  0  0
   -0.6122   -1.4782    0.0000 H   0  0  0  0  0  0  0  0  0  0  0  0
    0.6123   -1.4782    0.0000 H   0  0  0  0  0  0  0  0  0  0  0  0
   -1.3856    0.8000    0.0000 C   0  0  0  0  0  0  0  0  0  0  0  0
   -0.7734    2.2782    0.0000 H   0  0  0  0  0  0  0  0  0  0  0  0
   -1.9979    2.2782    0.0000 H   0  0  0  0  0  0  0  0  0  0  0  0
   -2.7712    0.0000    0.0000 C   0  0  0  0  0  0  0  0  0  0  0  0
   -3.3835   -1.4782    0.0000 H   0  0  0  0  0  0  0  0  0  0  0  0
   -2.1591   -1.4782    0.0000 H   0  0  0  0  0  0  0  0  0  0  0  0
   -4.1569    0.8000    0.0000 C   0  0  0  0  0  0  0  0  0  0  0  0
   -4.1569    2.4000    0.0000 O   0  0  0  0  0  0  0  0  0  0  0  0
   -5.5425    0.0000    0.0000 C   0  0  0  0  0  0  0  0  0  0  0  0
   -6.9282   -0.8000    0.0000 H   0  0  0  0  0  0  0  0  0  0  0  0
   -6.9282    0.8000    0.0000 H   0  0  0  0  0  0  0  0  0  0  0  0
   -5.5425   -1.6000    0.0000 H   0  0  0  0  0  0  0  0  0  0  0  0
  1  2  1  0  0  0  0
  1  3  1  0  0  0  0
  1  4  1  0  0  0  0
  1  5  1  0  0  0  0
  5  6  1  0  0  0  0
  5  7  1  0  0  0  0
  5  8  1  0  0  0  0
  8  9  1  0  0  0  0
  8 10  1  0  0  0  0
  8 11  1  0  0  0  0
 11 12  1  0  0  0  0
 11 13  1  0  0  0  0
 11 14  1  0  0  0  0
 14 15  1  0  0  0  0
 14 16  1  0  0  0  0
 14 17  1  0  0  0  0
 17 18  2  0  0  0  0
 17 19  1  0  0  0  0
 19 20  1  0  0  0  0
 19 21  1  0  0  0  0
 19 22  1  0  0  0  0
M  END
> <ChemID>
101066

> <source_casrn>
110-43-0

> <CAS>
110-43-0

> <SMILES>
CCCCCC(C)=O

> <NAME>
2-HEPTANONE

> <preferred_name>
2-Heptanone

> <iupac>
heptan-2-one

> <MPID>
20131

> <dsstox_substance_id>
DTXSID5021916

> <Canonical_QSARr>
CCCCCC(C)=O

> <InChI_Code_QSARr>
InChI=1S/C7H14O/c1-3-4-5-6-7(2)8/h3-6H2,1-2H3

> <InChI Key_QSARr>
CATSNJVOTSVZJV-UHFFFAOYSA-N

> <Salt_Solvent>
?

> <BP>
151.0

$$$$
101070
  -INDIGO-08031720192D

 14 13  0  0  0  0  0  0  0  0999 V2000
    1.3856   -0.8000    0.0000 C   0  0  0  0  0  0  0  0  0  0  0  0
    2.7713   -1.6000    0.0000 H   0  0  0  0  0  0  0  0  0  0  0  0
    2.7713    0.0000    0.0000 H   0  0  0  0  0  0  0  0  0  0  0  0
    0.0000    0.0000    0.0000 C   0  0  0  0  0  0  0  0  0  0  0  0
    0.6123    1.4782    0.0000 H   0  0  0  0  0  0  0  0  0  0  0  0
   -0.6123    1.4782    0.0000 H   0  0  0  0  0  0  0  0  0  0  0  0
   -1.3856   -0.8000    0.0000 C   0  0  0  0  0  0  0  0  0  0  0  0
   -1.9980   -2.2782    0.0000 H   0  0  0  0  0  0  0  0  0  0  0  0
   -0.7733   -2.2782    0.0000 H   0  0  0  0  0  0  0  0  0  0  0  0
   -2.7713    0.0000    0.0000 C   0  0  0  0  0  0  0  0  0  0  0  0
   -4.1569    0.8000    0.0000 H   0  0  0  0  0  0  0  0  0  0  0  0
   -4.1569   -0.8000    0.0000 H   0  0  0  0  0  0  0  0  0  0  0  0
   -2.7713    1.6000    0.0000 Br  0  0  0  0  0  0  0  0  0  0  0  0
    1.3856   -2.4000    0.0000 Br  0  0  0  0  0  0  0  0  0  0  0  0
  1  2  1  0  0  0  0
  1  3  1  0  0  0  0
  1  4  1  0  0  0  0
  4  5  1  0  0  0  0
  4  6  1  0  0  0  0
  4  7  1  0  0  0  0
  7  8  1  0  0  0  0
  7  9  1  0  0  0  0
  7 10  1  0  0  0  0
 10 11  1  0  0  0  0
 10 12  1  0  0  0  0
 10 13  1  0  0  0  0
  1 14  1  0  0  0  0
M  END
> <ChemID>
101070

> <source_casrn>
110-52-1

> <CAS>
110-52-1

> <SMILES>
BrCCCCBr

> <NAME>
1,4-DIBROMOBUTANE

> <preferred_name>
1,4-Dibromobutane

> <iupac>
1,4-dibromobutane

> <MPID>
20135

> <dsstox_substance_id>
DTXSID5044364

> <Canonical_QSARr>
BrCCCCBr

> <InChI_Code_QSARr>
InChI=1S/C4H8Br2/c5-3-1-2-4-6/h1-4H2

> <InChI Key_QSARr>
ULTHEAFYOOPTTB-UHFFFAOYSA-N

> <Salt_Solvent>
?

> <BP>
197.0

$$$$
101074
  -INDIGO-08031720192D

 12 11  0  0  0  0  0  0  0  0999 V2000
    1.3856   -2.4000    0.0000 Cl  0  0  0  0  0  0  0  0  0  0  0  0
    1.3856   -0.8000    0.0000 C   0  0  0  0  0  0  0  0  0  0  0  0
    2.7713   -1.6000    0.0000 H   0  0  0  0  0  0  0  0  0  0  0  0
    2.7713    0.0000    0.0000 H   0  0  0  0  0  0  0  0  0  0  0  0
    0.0000    0.0000    0.0000 C   0  0  0  0  0  0  0  0  0  0  0  0
    0.0000    1.6000    0.0000 H   0  0  0  0  0  0  0  0  0  0  0  0
   -1.3856   -0.8000    0.0000 C   0  0  0  0  0  0  0  0  0  0  0  0
   -1.3856   -2.4000    0.0000 H   0  0  0  0  0  0  0  0  0  0  0  0
   -2.7713    0.0000    0.0000 C   0  0  0  0  0  0  0  0  0  0  0  0
   -4.1569    0.8000    0.0000 H   0  0  0  0  0  0  0  0  0  0  0  0
   -4.1569   -0.8000    0.0000 H   0  0  0  0  0  0  0  0  0  0  0  0
   -2.7713    1.6000    0.0000 Cl  0  0  0  0  0  0  0  0  0  0  0  0
  1  2  1  0  0  0  0
  2  3  1  0  0  0  0
  2  4  1  0  0  0  0
  2  5  1  0  0  0  0
  5  6  1  0  0  0  0
  5  7  2  0  0  0  0
  7  8  1  0  0  0  0
  7  9  1  0  0  0  0
  9 10  1  0  0  0  0
  9 11  1  0  0  0  0
  9 12  1  0  0  0  0
M  END
> <ChemID>
101074

> <source_casrn>
110-57-6|764-41-0|1476-11-5

> <CAS>
110-57-6|764-41-0|1476-11-5

> <SMILES>
ClC/C=C/CCl

> <NAME>
1,4-DICHLORO-2-BUTENE(TRANS), 1,4-DICHLORO-2-BUTENE, 1,4-DICHLORO-2-BUTENE(CIS)

> <preferred_name>
(2E)-1,4-Dichlorobut-2-ene

> <iupac>
(2E)-1,4-dichlorobut-2-ene

> <MPID>
20139|22275|22765

> <dsstox_substance_id>
DTXSID6020434|DTXSID9027310|DTXSID3027405

> <Canonical_QSARr>
ClCC=CCCl

> <InChI_Code_QSARr>
InChI=1S/C4H6Cl2/c5-3-1-2-4-6/h1-2H,3-4H2/b2-1+

> <InChI Key_QSARr>
FQDIANVAWVHZIR-OWOJBTEDSA-N

> <Salt_Solvent>
?

> <BP>
155.3

$$$$
101078
  -INDIGO-08031720192D

 10  9  0  0  0  0  0  0  0  0999 V2000
   -3.2000   -0.0000    0.0000 N   0  0  0  0  0  0  0  0  0  0  0  0
   -1.6000   -0.0000    0.0000 C   0  0  0  0  0  0  0  0  0  0  0  0
    0.0000   -0.0000    0.0000 C   0  0  0  0  0  0  0  0  0  0  0  0
    0.2089    1.5863    0.0000 H   0  0  0  0  0  0  0  0  0  0  0  0
    1.2694    0.9740    0.0000 H   0  0  0  0  0  0  0  0  0  0  0  0
    0.8000   -1.3856    0.0000 C   0  0  0  0  0  0  0  0  0  0  0  0
    0.5911   -2.9720    0.0000 H   0  0  0  0  0  0  0  0  0  0  0  0
   -0.4694   -2.3597    0.0000 H   0  0  0  0  0  0  0  0  0  0  0  0
    2.4000   -1.3856    0.0000 C   0  0  0  0  0  0  0  0  0  0  0  0
    4.0000   -1.3856    0.0000 N   0  0  0  0  0  0  0  0  0  0  0  0
  1  2  3  0  0  0  0
  2  3  1  0  0  0  0
  3  4  1  0  0  0  0
  3  5  1  0  0  0  0
  3  6  1  0  0  0  0
  6  7  1  0  0  0  0
  6  8  1  0  0  0  0
  6  9  1  0  0  0  0
  9 10  3  0  0  0  0
M  END
> <ChemID>
101078

> <source_casrn>
110-61-2

> <CAS>
110-61-2

> <SMILES>
N#CCCC#N

> <NAME>
SUCCINONITRILE

> <preferred_name>
Succinonitrile

> <iupac>
butanedinitrile

> <MPID>
20143

> <dsstox_substance_id>
DTXSID9026059

> <Canonical_QSARr>
N#CCCC#N

> <InChI_Code_QSARr>
InChI=1S/C4H4N2/c5-3-1-2-4-6/h1-2H2

> <InChI Key_QSARr>
IAHFWCOBPZCAEA-UHFFFAOYSA-N

> <Salt_Solvent>
?

> <BP>
266.0

$$$$
101082
  -INDIGO-08031720192D

 18 17  0  0  0  0  0  0  0  0999 V2000
    4.1569    0.8000    0.0000 S   0  0  0  0  0  0  0  0  0  0  0  0
    5.5426   -0.0000    0.0000 H   0  0  0  0  0  0  0  0  0  0  0  0
    2.7713   -0.0000    0.0000 C   0  0  0  0  0  0  0  0  0  0  0  0
    3.3836   -1.4782    0.0000 H   0  0  0  0  0  0  0  0  0  0  0  0
    2.1590   -1.4782    0.0000 H   0  0  0  0  0  0  0  0  0  0  0  0
    1.3857    0.8000    0.0000 C   0  0  0  0  0  0  0  0  0  0  0  0
    0.7734    2.2782    0.0000 H   0  0  0  0  0  0  0  0  0  0  0  0
    1.9980    2.2782    0.0000 H   0  0  0  0  0  0  0  0  0  0  0  0
   -0.0001   -0.0000    0.0000 C   0  0  0  0  0  0  0  0  0  0  0  0
    0.6122   -1.4782    0.0000 H   0  0  0  0  0  0  0  0  0  0  0  0
   -0.6124   -1.4782    0.0000 H   0  0  0  0  0  0  0  0  0  0  0  0
   -1.3857    0.8000    0.0000 C   0  0  0  0  0  0  0  0  0  0  0  0
   -1.9980    2.2782    0.0000 H   0  0  0  0  0  0  0  0  0  0  0  0
   -0.7734    2.2782    0.0000 H   0  0  0  0  0  0  0  0  0  0  0  0
   -2.7713   -0.0000    0.0000 C   0  0  0  0  0  0  0  0  0  0  0  0
   -4.1569   -0.8000    0.0000 H   0  0  0  0  0  0  0  0  0  0  0  0
   -4.1569    0.8000    0.0000 H   0  0  0  0  0  0  0  0  0  0  0  0
   -2.7713   -1.6000    0.0000 H   0  0  0  0  0  0  0  0  0  0  0  0
  1  2  1  0  0  0  0
  1  3  1  0  0  0  0
  3  4  1  0  0  0  0
  3  5  1  0  0  0  0
  3  6  1  0  0  0  0
  6  7  1  0  0  0  0
  6  8  1  0  0  0  0
  6  9  1  0  0  0  0
  9 10  1  0  0  0  0
  9 11  1  0  0  0  0
  9 12  1  0  0  0  0
 12 13  1  0  0  0  0
 12 14  1  0  0  0  0
 12 15  1  0  0  0  0
 15 16  1  0  0  0  0
 15 17  1  0  0  0  0
 15 18  1  0  0  0  0
M  END
> <ChemID>
101082

> <source_casrn>
110-66-7

> <CAS>
110-66-7

> <SMILES>
CCCCCS

> <NAME>
1-PENTANETHIOL

> <preferred_name>
Pentyl mercaptan

> <iupac>
pentane-1-thiol

> <MPID>
20147

> <dsstox_substance_id>
DTXSID9041605

> <Canonical_QSARr>
CCCCCS

> <InChI_Code_QSARr>
InChI=1S/C5H12S/c1-2-3-4-5-6/h6H,2-5H2,1H3

> <InChI Key_QSARr>
ZRKMQKLGEQPLNS-UHFFFAOYSA-N

> <Salt_Solvent>
?

> <BP>
126.6

$$$$
101086
  -INDIGO-08031720192D

 18 17  0  0  0  0  0  0  0  0999 V2000
    2.7713    0.0000    0.0000 C   0  0  0  0  0  0  0  0  0  0  0  0
    4.1569    0.8000    0.0000 H   0  0  0  0  0  0  0  0  0  0  0  0
    4.1569   -0.8000    0.0000 H   0  0  0  0  0  0  0  0  0  0  0  0
    2.7713    1.6000    0.0000 H   0  0  0  0  0  0  0  0  0  0  0  0
    1.3857   -0.8000    0.0000 N   0  0  0  0  0  0  0  0  0  0  0  0
    1.3857   -2.4000    0.0000 H   0  0  0  0  0  0  0  0  0  0  0  0
    0.0001    0.0000    0.0000 C   0  0  0  0  0  0  0  0  0  0  0  0
    0.6124    1.4782    0.0000 H   0  0  0  0  0  0  0  0  0  0  0  0
   -0.6122    1.4782    0.0000 H   0  0  0  0  0  0  0  0  0  0  0  0
   -1.3857   -0.8000    0.0000 C   0  0  0  0  0  0  0  0  0  0  0  0
   -1.9980   -2.2782    0.0000 H   0  0  0  0  0  0  0  0  0  0  0  0
   -0.7734   -2.2782    0.0000 H   0  0  0  0  0  0  0  0  0  0  0  0
   -2.7713    0.0000    0.0000 N   0  0  0  0  0  0  0  0  0  0  0  0
   -2.7713    1.6000    0.0000 H   0  0  0  0  0  0  0  0  0  0  0  0
   -4.1569   -0.8000    0.0000 C   0  0  0  0  0  0  0  0  0  0  0  0
   -5.5426   -1.6000    0.0000 H   0  0  0  0  0  0  0  0  0  0  0  0
   -5.5426    0.0000    0.0000 H   0  0  0  0  0  0  0  0  0  0  0  0
   -4.1569   -2.4000    0.0000 H   0  0  0  0  0  0  0  0  0  0  0  0
  1  2  1  0  0  0  0
  1  3  1  0  0  0  0
  1  4  1  0  0  0  0
  1  5  1  0  0  0  0
  5  6  1  0  0  0  0
  5  7  1  0  0  0  0
  7  8  1  0  0  0  0
  7  9  1  0  0  0  0
  7 10  1  0  0  0  0
 10 11  1  0  0  0  0
 10 12  1  0  0  0  0
 10 13  1  0  0  0  0
 13 14  1  0  0  0  0
 13 15  1  0  0  0  0
 15 16  1  0  0  0  0
 15 17  1  0  0  0  0
 15 18  1  0  0  0  0
M  END
> <ChemID>
101086

> <source_casrn>
110-70-3

> <CAS>
110-70-3

> <SMILES>
CNCCNC

> <NAME>
1,2-ETHANEDIAMINE, N,N'-DIMETHYL-

> <preferred_name>
N,N'-Dimethylethane-1,2-diamine

> <iupac>
N,N'-dimethylethane-1,2-diamine

> <MPID>
20151

> <dsstox_substance_id>
DTXSID4058730

> <Canonical_QSARr>
CNCCNC

> <InChI_Code_QSARr>
InChI=1S/C4H12N2/c1-5-3-4-6-2/h5-6H,3-4H2,1-2H3

> <InChI Key_QSARr>
KVKFRMCSXWQSNT-UHFFFAOYSA-N

> <Salt_Solvent>
?

> <BP>
120.0

$$$$
101090
  -INDIGO-08031720192D

 14 13  0  0  0  0  0  0  0  0999 V2000
   -1.3857    0.8000    0.0000 C   0  0  0  0  0  0  0  0  0  0  0  0
   -0.7733    2.2782    0.0000 H   0  0  0  0  0  0  0  0  0  0  0  0
   -1.9979    2.2782    0.0000 H   0  0  0  0  0  0  0  0  0  0  0  0
   -2.7713    0.0000    0.0000 O   0  0  0  0  0  0  0  0  0  0  0  0
   -4.1569    0.8000    0.0000 C   0  0  0  0  0  0  0  0  0  0  0  0
   -5.5426    0.0000    0.0000 H   0  0  0  0  0  0  0  0  0  0  0  0
   -4.1569    2.4000    0.0000 O   0  0  0  0  0  0  0  0  0  0  0  0
    0.0000    0.0000    0.0000 C   0  0  0  0  0  0  0  0  0  0  0  0
   -0.6122   -1.4782    0.0000 H   0  0  0  0  0  0  0  0  0  0  0  0
    0.6122   -1.4782    0.0000 H   0  0  0  0  0  0  0  0  0  0  0  0
    1.3856    0.8000    0.0000 C   0  0  0  0  0  0  0  0  0  0  0  0
    2.7713    1.6000    0.0000 H   0  0  0  0  0  0  0  0  0  0  0  0
    2.7713    0.0000    0.0000 H   0  0  0  0  0  0  0  0  0  0  0  0
    1.3856    2.4000    0.0000 H   0  0  0  0  0  0  0  0  0  0  0  0
  1  2  1  0  0  0  0
  1  3  1  0  0  0  0
  1  4  1  0  0  0  0
  4  5  1  0  0  0  0
  5  6  1  0  0  0  0
  5  7  2  0  0  0  0
  1  8  1  0  0  0  0
  8  9  1  0  0  0  0
  8 10  1  0  0  0  0
  8 11  1  0  0  0  0
 11 12  1  0  0  0  0
 11 13  1  0  0  0  0
 11 14  1  0  0  0  0
M  END
> <ChemID>
101090

> <source_casrn>
110-74-7

> <CAS>
110-74-7

> <SMILES>
CCCOC=O

> <NAME>
PROPYL FORMATE

> <preferred_name>
Formic acid, propyl ester

> <iupac>
PROPYL FORMATE

> <MPID>
20155

> <dsstox_substance_id>
DTXSID3059391

> <Canonical_QSARr>
CCCOC=O

> <InChI_Code_QSARr>
InChI=1S/C4H8O2/c1-2-3-6-4-5/h4H,2-3H2,1H3

> <InChI Key_QSARr>
KFNNIILCVOLYIR-UHFFFAOYSA-N

> <Salt_Solvent>
?

> <BP>
80.9

$$$$
101094
  -INDIGO-08031720192D

 13 12  0  0  0  0  0  0  0  0999 V2000
   -4.1569    0.8000    0.0000 C   0  0  0  0  0  0  0  0  0  0  0  0
   -2.7713    0.0000    0.0000 N   0  0  0  0  0  0  0  0  0  0  0  0
   -1.3857    0.8000    0.0000 C   0  0  0  0  0  0  0  0  0  0  0  0
   -0.7733    2.2782    0.0000 H   0  0  0  0  0  0  0  0  0  0  0  0
   -1.9979    2.2782    0.0000 H   0  0  0  0  0  0  0  0  0  0  0  0
    0.0000    0.0000    0.0000 C   0  0  0  0  0  0  0  0  0  0  0  0
   -0.6122   -1.4782    0.0000 H   0  0  0  0  0  0  0  0  0  0  0  0
    0.6122   -1.4782    0.0000 H   0  0  0  0  0  0  0  0  0  0  0  0
    1.3856    0.8000    0.0000 C   0  0  0  0  0  0  0  0  0  0  0  0
    2.7713    1.6000    0.0000 H   0  0  0  0  0  0  0  0  0  0  0  0
    2.7713    0.0000    0.0000 H   0  0  0  0  0  0  0  0  0  0  0  0
    1.3856    2.4000    0.0000 H   0  0  0  0  0  0  0  0  0  0  0  0
   -5.5426    1.6000    0.0000 O   0  0  0  0  0  0  0  0  0  0  0  0
  1  2  2  0  0  0  0
  2  3  1  0  0  0  0
  3  4  1  0  0  0  0
  3  5  1  0  0  0  0
  3  6  1  0  0  0  0
  6  7  1  0  0  0  0
  6  8  1  0  0  0  0
  6  9  1  0  0  0  0
  9 10  1  0  0  0  0
  9 11  1  0  0  0  0
  9 12  1  0  0  0  0
  1 13  2  0  0  0  0
M  END
> <ChemID>
101094

> <source_casrn>
110-78-1

> <CAS>
110-78-1

> <SMILES>
CCCN=C=O

> <NAME>
Propane, 1-isocyanato-

> <preferred_name>
Propyl isocyanate

> <iupac>
1-isocyanatopropane

> <MPID>
20159

> <dsstox_substance_id>
DTXSID5051571

> <Canonical_QSARr>
CCCN=C=O

> <InChI_Code_QSARr>
InChI=1S/C4H7NO/c1-2-3-5-4-6/h2-3H2,1H3

> <InChI Key_QSARr>
OQURWGJAWSLGQG-UHFFFAOYSA-N

> <Salt_Solvent>
?

> <BP>
83.5

$$$$
101098
  -INDIGO-08031720192D

 16 16  0  0  0  0  0  0  0  0999 V2000
    0.0000    2.7712    0.0000 C   0  0  0  0  0  0  0  0  0  0  0  0
    0.8000    4.1569    0.0000 H   0  0  0  0  0  0  0  0  0  0  0  0
   -1.6000    2.7712    0.0000 C   0  0  0  0  0  0  0  0  0  0  0  0
   -2.4000    4.1569    0.0000 H   0  0  0  0  0  0  0  0  0  0  0  0
   -2.4000    1.3857    0.0000 C   0  0  0  0  0  0  0  0  0  0  0  0
   -3.6257    2.4141    0.0000 H   0  0  0  0  0  0  0  0  0  0  0  0
   -3.6257    0.3572    0.0000 H   0  0  0  0  0  0  0  0  0  0  0  0
   -1.6000   -0.0000    0.0000 C   0  0  0  0  0  0  0  0  0  0  0  0
   -3.1035   -0.5473    0.0000 H   0  0  0  0  0  0  0  0  0  0  0  0
   -1.3222   -1.5757    0.0000 H   0  0  0  0  0  0  0  0  0  0  0  0
    0.0000   -0.0000    0.0000 C   0  0  0  0  0  0  0  0  0  0  0  0
   -0.2778   -1.5757    0.0000 H   0  0  0  0  0  0  0  0  0  0  0  0
    1.5035   -0.5473    0.0000 H   0  0  0  0  0  0  0  0  0  0  0  0
    0.8000    1.3857    0.0000 C   0  0  0  0  0  0  0  0  0  0  0  0
    2.0257    0.3572    0.0000 H   0  0  0  0  0  0  0  0  0  0  0  0
    2.0257    2.4141    0.0000 H   0  0  0  0  0  0  0  0  0  0  0  0
  1  2  1  0  0  0  0
  1  3  2  0  0  0  0
  3  4  1  0  0  0  0
  3  5  1  0  0  0  0
  5  6  1  0  0  0  0
  5  7  1  0  0  0  0
  5  8  1  0  0  0  0
  8  9  1  0  0  0  0
  8 10  1  0  0  0  0
  8 11  1  0  0  0  0
 11 12  1  0  0  0  0
 11 13  1  0  0  0  0
 11 14  1  0  0  0  0
 14  1  1  0  0  0  0
 14 15  1  0  0  0  0
 14 16  1  0  0  0  0
M  END
> <ChemID>
101098

> <source_casrn>
110-83-8

> <CAS>
110-83-8

> <SMILES>
C1CCCC=C1

> <NAME>
CYCLOHEXENE

> <preferred_name>
Cyclohexene

> <iupac>
cyclohexene

> <MPID>
20163

> <dsstox_substance_id>
DTXSID9038717

> <Canonical_QSARr>
C1CCCC=C1

> <InChI_Code_QSARr>
InChI=1S/C6H10/c1-2-4-6-5-3-1/h1-2H,3-6H2

> <InChI Key_QSARr>
HGCIXCUEYOPUTN-UHFFFAOYSA-N

> <Salt_Solvent>
?

> <BP>
82.9

$$$$
101102
  -INDIGO-08031720192D

 12 12  0  0  0  0  0  0  0  0999 V2000
    0.0000    0.0000    0.0000 C   0  0  0  0  0  0  0  0  0  0  0  0
    0.5472    1.5035    0.0000 H   0  0  0  0  0  0  0  0  0  0  0  0
    1.5757   -0.2778    0.0000 H   0  0  0  0  0  0  0  0  0  0  0  0
   -1.3856    0.8000    0.0000 O   0  0  0  0  0  0  0  0  0  0  0  0
   -2.7713    0.0000    0.0000 C   0  0  0  0  0  0  0  0  0  0  0  0
   -3.3185    1.5035    0.0000 H   0  0  0  0  0  0  0  0  0  0  0  0
   -4.3470   -0.2778    0.0000 H   0  0  0  0  0  0  0  0  0  0  0  0
   -2.7713   -1.6000    0.0000 O   0  0  0  0  0  0  0  0  0  0  0  0
   -1.3856   -2.4000    0.0000 C   0  0  0  0  0  0  0  0  0  0  0  0
   -2.4141   -3.6257    0.0000 H   0  0  0  0  0  0  0  0  0  0  0  0
   -0.3571   -3.6257    0.0000 H   0  0  0  0  0  0  0  0  0  0  0  0
    0.0000   -1.6000    0.0000 O   0  0  0  0  0  0  0  0  0  0  0  0
  1  2  1  0  0  0  0
  1  3  1  0  0  0  0
  1  4  1  0  0  0  0
  4  5  1  0  0  0  0
  5  6  1  0  0  0  0
  5  7  1  0  0  0  0
  5  8  1  0  0  0  0
  8  9  1  0  0  0  0
  9 10  1  0  0  0  0
  9 11  1  0  0  0  0
  9 12  1  0  0  0  0
 12  1  1  0  0  0  0
M  END
> <ChemID>
101102

> <source_casrn>
110-88-3

> <CAS>
110-88-3

> <SMILES>
C1OCOCO1

> <NAME>
1,3,5-TRIOXANE

> <preferred_name>
1,3,5-Trioxane

> <iupac>
1,3,5-trioxane

> <MPID>
20167

> <dsstox_substance_id>
DTXSID4021925

> <Canonical_QSARr>
C1OCOCO1

> <InChI_Code_QSARr>
InChI=1S/C3H6O3/c1-4-2-6-3-5-1/h1-3H2

> <InChI Key_QSARr>
BGJSXRVXTHVRSN-UHFFFAOYSA-N

> <Salt_Solvent>
?

> <BP>
114.5

$$$$
101106
  -INDIGO-08031720192D

 17 16  0  0  0  0  0  0  0  0999 V2000
    4.1569    0.8000    0.0000 O   0  0  0  0  0  0  0  0  0  0  0  0
    5.5426   -0.0000    0.0000 H   0  0  0  0  0  0  0  0  0  0  0  0
    2.7712   -0.0000    0.0000 C   0  0  0  0  0  0  0  0  0  0  0  0
    1.3856    0.8000    0.0000 C   0  0  0  0  0  0  0  0  0  0  0  0
    0.7734    2.2782    0.0000 H   0  0  0  0  0  0  0  0  0  0  0  0
    1.9979    2.2782    0.0000 H   0  0  0  0  0  0  0  0  0  0  0  0
    0.0001   -0.0000    0.0000 C   0  0  0  0  0  0  0  0  0  0  0  0
    0.6122   -1.4782    0.0000 H   0  0  0  0  0  0  0  0  0  0  0  0
   -0.6122   -1.4782    0.0000 H   0  0  0  0  0  0  0  0  0  0  0  0
   -1.3856    0.8000    0.0000 C   0  0  0  0  0  0  0  0  0  0  0  0
   -1.9979    2.2782    0.0000 H   0  0  0  0  0  0  0  0  0  0  0  0
   -0.7734    2.2782    0.0000 H   0  0  0  0  0  0  0  0  0  0  0  0
   -2.7712   -0.0000    0.0000 C   0  0  0  0  0  0  0  0  0  0  0  0
   -4.1569    0.8000    0.0000 O   0  0  0  0  0  0  0  0  0  0  0  0
   -5.5426   -0.0000    0.0000 H   0  0  0  0  0  0  0  0  0  0  0  0
   -2.7712   -1.6000    0.0000 O   0  0  0  0  0  0  0  0  0  0  0  0
    2.7712   -1.6000    0.0000 O   0  0  0  0  0  0  0  0  0  0  0  0
  1  2  1  0  0  0  0
  1  3  1  0  0  0  0
  3  4  1  0  0  0  0
  4  5  1  0  0  0  0
  4  6  1  0  0  0  0
  4  7  1  0  0  0  0
  7  8  1  0  0  0  0
  7  9  1  0  0  0  0
  7 10  1  0  0  0  0
 10 11  1  0  0  0  0
 10 12  1  0  0  0  0
 10 13  1  0  0  0  0
 13 14  1  0  0  0  0
 14 15  1  0  0  0  0
 13 16  2  0  0  0  0
  3 17  2  0  0  0  0
M  END
> <ChemID>
101106

> <source_casrn>
110-94-1

> <CAS>
110-94-1

> <SMILES>
OC(=O)CCCC(O)=O

> <NAME>
PENTANEDIOC ACID

> <preferred_name>
Pentanedioic acid

> <iupac>
pentanedioic acid

> <MPID>
20171

> <dsstox_substance_id>
DTXSID2021654

> <Canonical_QSARr>
OC(=O)CCCC(O)=O

> <InChI_Code_QSARr>
InChI=1S/C5H8O4/c6-4(7)2-1-3-5(8)9/h1-3H2,(H,6,7)(H,8,9)

> <InChI Key_QSARr>
JFCQEDHGNNZCLN-UHFFFAOYSA-N

> <Salt_Solvent>
?

> <BP>
303.0

$$$$
101110
  -INDIGO-08031720192D

 23 22  0  0  0  0  0  0  0  0999 V2000
   -4.1569    0.8000    0.0000 C   0  0  0  0  0  0  0  0  0  0  0  0
   -3.5447    2.2782    0.0000 H   0  0  0  0  0  0  0  0  0  0  0  0
   -4.7692    2.2782    0.0000 H   0  0  0  0  0  0  0  0  0  0  0  0
   -5.5425    0.0000    0.0000 C   0  0  0  0  0  0  0  0  0  0  0  0
   -4.7426   -1.3856    0.0000 H   0  0  0  0  0  0  0  0  0  0  0  0
   -6.9282   -0.8000    0.0000 C   0  0  0  0  0  0  0  0  0  0  0  0
   -8.3138   -1.6000    0.0000 H   0  0  0  0  0  0  0  0  0  0  0  0
   -8.3138    0.0000    0.0000 H   0  0  0  0  0  0  0  0  0  0  0  0
   -6.9282   -2.4000    0.0000 H   0  0  0  0  0  0  0  0  0  0  0  0
   -6.3426    1.3856    0.0000 O   0  0  0  0  0  0  0  0  0  0  0  0
   -7.9426    1.3856    0.0000 H   0  0  0  0  0  0  0  0  0  0  0  0
   -2.7712    0.0000    0.0000 O   0  0  0  0  0  0  0  0  0  0  0  0
   -1.3857    0.8000    0.0000 C   0  0  0  0  0  0  0  0  0  0  0  0
   -0.7734    2.2782    0.0000 H   0  0  0  0  0  0  0  0  0  0  0  0
   -1.9979    2.2782    0.0000 H   0  0  0  0  0  0  0  0  0  0  0  0
   -0.0000    0.0000    0.0000 C   0  0  0  0  0  0  0  0  0  0  0  0
   -0.7999   -1.3856    0.0000 H   0  0  0  0  0  0  0  0  0  0  0  0
    1.3856   -0.8000    0.0000 C   0  0  0  0  0  0  0  0  0  0  0  0
    2.7713   -1.6000    0.0000 H   0  0  0  0  0  0  0  0  0  0  0  0
    2.7713    0.0000    0.0000 H   0  0  0  0  0  0  0  0  0  0  0  0
    1.3856   -2.4000    0.0000 H   0  0  0  0  0  0  0  0  0  0  0  0
    0.8000    1.3856    0.0000 O   0  0  0  0  0  0  0  0  0  0  0  0
    2.4000    1.3856    0.0000 H   0  0  0  0  0  0  0  0  0  0  0  0
  1  2  1  0  0  0  0
  1  3  1  0  0  0  0
  1  4  1  0  0  0  0
  4  5  1  0  0  0  0
  4  6  1  0  0  0  0
  6  7  1  0  0  0  0
  6  8  1  0  0  0  0
  6  9  1  0  0  0  0
  4 10  1  0  0  0  0
 10 11  1  0  0  0  0
  1 12  1  0  0  0  0
 12 13  1  0  0  0  0
 13 14  1  0  0  0  0
 13 15  1  0  0  0  0
 13 16  1  0  0  0  0
 16 17  1  0  0  0  0
 16 18  1  0  0  0  0
 18 19  1  0  0  0  0
 18 20  1  0  0  0  0
 18 21  1  0  0  0  0
 16 22  1  0  0  0  0
 22 23  1  0  0  0  0
M  END
> <ChemID>
101110

> <source_casrn>
110-98-5

> <CAS>
110-98-5

> <SMILES>
CC(O)COCC(C)O

> <NAME>
1,1'-Oxydi-2-propanol

> <preferred_name>
1,1'-Oxybis-2-propanol

> <iupac>
1,1'-oxydipropan-2-ol

> <MPID>
20175

> <dsstox_substance_id>
DTXSID7026863

> <Canonical_QSARr>
CC(O)COCC(C)O

> <InChI_Code_QSARr>
InChI=1S/C6H14O3/c1-5(7)3-9-4-6(2)8/h5-8H,3-4H2,1-2H3

> <InChI Key_QSARr>
AZUXKVXMJOIAOF-UHFFFAOYSA-N

> <Salt_Solvent>
?

> <BP>
232.8

$$$$
101114
  -INDIGO-08031720192D

 25 24  0  0  0  0  0  0  0  0999 V2000
    5.5425    0.0000    0.0000 C   0  0  0  0  0  0  0  0  0  0  0  0
    6.9282   -0.8000    0.0000 H   0  0  0  0  0  0  0  0  0  0  0  0
    6.9282    0.8000    0.0000 H   0  0  0  0  0  0  0  0  0  0  0  0
    5.5425   -1.6000    0.0000 H   0  0  0  0  0  0  0  0  0  0  0  0
    4.1570    0.8000    0.0000 C   0  0  0  0  0  0  0  0  0  0  0  0
    4.1570    2.4000    0.0000 O   0  0  0  0  0  0  0  0  0  0  0  0
    2.7713    0.0000    0.0000 C   0  0  0  0  0  0  0  0  0  0  0  0
    2.1589   -1.4782    0.0000 H   0  0  0  0  0  0  0  0  0  0  0  0
    3.3836   -1.4782    0.0000 H   0  0  0  0  0  0  0  0  0  0  0  0
    1.3856    0.8000    0.0000 C   0  0  0  0  0  0  0  0  0  0  0  0
    1.9979    2.2782    0.0000 H   0  0  0  0  0  0  0  0  0  0  0  0
    0.7734    2.2782    0.0000 H   0  0  0  0  0  0  0  0  0  0  0  0
    0.0001    0.0000    0.0000 C   0  0  0  0  0  0  0  0  0  0  0  0
   -0.6123   -1.4782    0.0000 H   0  0  0  0  0  0  0  0  0  0  0  0
    0.6122   -1.4782    0.0000 H   0  0  0  0  0  0  0  0  0  0  0  0
   -1.3856    0.8000    0.0000 C   0  0  0  0  0  0  0  0  0  0  0  0
   -0.7733    2.2782    0.0000 H   0  0  0  0  0  0  0  0  0  0  0  0
   -1.9980    2.2782    0.0000 H   0  0  0  0  0  0  0  0  0  0  0  0
   -2.7713    0.0000    0.0000 C   0  0  0  0  0  0  0  0  0  0  0  0
   -3.3835   -1.4782    0.0000 H   0  0  0  0  0  0  0  0  0  0  0  0
   -2.1590   -1.4782    0.0000 H   0  0  0  0  0  0  0  0  0  0  0  0
   -4.1569    0.8000    0.0000 C   0  0  0  0  0  0  0  0  0  0  0  0
   -5.5426    1.6000    0.0000 H   0  0  0  0  0  0  0  0  0  0  0  0
   -5.5426    0.0000    0.0000 H   0  0  0  0  0  0  0  0  0  0  0  0
   -4.1569    2.4000    0.0000 H   0  0  0  0  0  0  0  0  0  0  0  0
  1  2  1  0  0  0  0
  1  3  1  0  0  0  0
  1  4  1  0  0  0  0
  1  5  1  0  0  0  0
  5  6  2  0  0  0  0
  5  7  1  0  0  0  0
  7  8  1  0  0  0  0
  7  9  1  0  0  0  0
  7 10  1  0  0  0  0
 10 11  1  0  0  0  0
 10 12  1  0  0  0  0
 10 13  1  0  0  0  0
 13 14  1  0  0  0  0
 13 15  1  0  0  0  0
 13 16  1  0  0  0  0
 16 17  1  0  0  0  0
 16 18  1  0  0  0  0
 16 19  1  0  0  0  0
 19 20  1  0  0  0  0
 19 21  1  0  0  0  0
 19 22  1  0  0  0  0
 22 23  1  0  0  0  0
 22 24  1  0  0  0  0
 22 25  1  0  0  0  0
M  END
> <ChemID>
101114

> <source_casrn>
111-13-7

> <CAS>
111-13-7

> <SMILES>
CCCCCCC(C)=O

> <NAME>
2-OCTANONE

> <preferred_name>
2-Octanone

> <iupac>
octan-2-one

> <MPID>
20179

> <dsstox_substance_id>
DTXSID4021927

> <Canonical_QSARr>
CCCCCCC(C)=O

> <InChI_Code_QSARr>
InChI=1S/C8H16O/c1-3-4-5-6-7-8(2)9/h3-7H2,1-2H3

> <InChI Key_QSARr>
ZPVFWPFBNIEHGJ-UHFFFAOYSA-N

> <Salt_Solvent>
?

> <BP>
172.5

$$$$
101118
  -INDIGO-08031720192D

 36 35  0  0  0  0  0  0  0  0999 V2000
    2.7713   -0.0000    0.0000 C   0  0  0  0  0  0  0  0  0  0  0  0
    3.3835    1.4782    0.0000 H   0  0  0  0  0  0  0  0  0  0  0  0
    2.1589    1.4782    0.0000 H   0  0  0  0  0  0  0  0  0  0  0  0
    1.3856   -0.8000    0.0000 C   0  0  0  0  0  0  0  0  0  0  0  0
    0.7732   -2.2782    0.0000 H   0  0  0  0  0  0  0  0  0  0  0  0
    1.9980   -2.2782    0.0000 H   0  0  0  0  0  0  0  0  0  0  0  0
   -0.0001   -0.0000    0.0000 C   0  0  0  0  0  0  0  0  0  0  0  0
    0.6123    1.4782    0.0000 H   0  0  0  0  0  0  0  0  0  0  0  0
   -0.6122    1.4782    0.0000 H   0  0  0  0  0  0  0  0  0  0  0  0
   -1.3856   -0.8000    0.0000 C   0  0  0  0  0  0  0  0  0  0  0  0
   -1.9979   -2.2782    0.0000 H   0  0  0  0  0  0  0  0  0  0  0  0
   -0.7734   -2.2782    0.0000 H   0  0  0  0  0  0  0  0  0  0  0  0
   -2.7713   -0.0000    0.0000 C   0  0  0  0  0  0  0  0  0  0  0  0
   -2.1589    1.4782    0.0000 H   0  0  0  0  0  0  0  0  0  0  0  0
   -3.3836    1.4782    0.0000 H   0  0  0  0  0  0  0  0  0  0  0  0
   -4.1570   -0.8000    0.0000 C   0  0  0  0  0  0  0  0  0  0  0  0
   -4.7691   -2.2782    0.0000 H   0  0  0  0  0  0  0  0  0  0  0  0
   -3.5446   -2.2782    0.0000 H   0  0  0  0  0  0  0  0  0  0  0  0
   -5.5427   -0.0000    0.0000 N   0  0  0  0  0  0  0  0  0  0  0  0
   -6.9281   -0.8000    0.0000 C   0  0  0  0  0  0  0  0  0  0  0  0
   -8.3138   -1.6000    0.0000 H   0  0  0  0  0  0  0  0  0  0  0  0
   -8.3138   -0.0000    0.0000 H   0  0  0  0  0  0  0  0  0  0  0  0
   -6.9281   -2.4000    0.0000 H   0  0  0  0  0  0  0  0  0  0  0  0
   -5.5427    1.6000    0.0000 C   0  0  0  0  0  0  0  0  0  0  0  0
   -5.5427    3.2000    0.0000 H   0  0  0  0  0  0  0  0  0  0  0  0
   -6.9281    2.4000    0.0000 H   0  0  0  0  0  0  0  0  0  0  0  0
   -4.1570    2.4000    0.0000 H   0  0  0  0  0  0  0  0  0  0  0  0
    4.1570   -0.8000    0.0000 N   0  0  0  0  0  0  0  0  0  0  0  0
    5.5425   -0.0000    0.0000 C   0  0  0  0  0  0  0  0  0  0  0  0
    6.9282    0.8000    0.0000 H   0  0  0  0  0  0  0  0  0  0  0  0
    6.9282   -0.8000    0.0000 H   0  0  0  0  0  0  0  0  0  0  0  0
    5.5425    1.6000    0.0000 H   0  0  0  0  0  0  0  0  0  0  0  0
    4.1570   -2.4000    0.0000 C   0  0  0  0  0  0  0  0  0  0  0  0
    4.1570   -4.0000    0.0000 H   0  0  0  0  0  0  0  0  0  0  0  0
    5.5425   -3.2000    0.0000 H   0  0  0  0  0  0  0  0  0  0  0  0
    2.7713   -3.2000    0.0000 H   0  0  0  0  0  0  0  0  0  0  0  0
  1  2  1  0  0  0  0
  1  3  1  0  0  0  0
  1  4  1  0  0  0  0
  4  5  1  0  0  0  0
  4  6  1  0  0  0  0
  4  7  1  0  0  0  0
  7  8  1  0  0  0  0
  7  9  1  0  0  0  0
  7 10  1  0  0  0  0
 10 11  1  0  0  0  0
 10 12  1  0  0  0  0
 10 13  1  0  0  0  0
 13 14  1  0  0  0  0
 13 15  1  0  0  0  0
 13 16  1  0  0  0  0
 16 17  1  0  0  0  0
 16 18  1  0  0  0  0
 16 19  1  0  0  0  0
 19 20  1  0  0  0  0
 20 21  1  0  0  0  0
 20 22  1  0  0  0  0
 20 23  1  0  0  0  0
 19 24  1  0  0  0  0
 24 25  1  0  0  0  0
 24 26  1  0  0  0  0
 24 27  1  0  0  0  0
  1 28  1  0  0  0  0
 28 29  1  0  0  0  0
 29 30  1  0  0  0  0
 29 31  1  0  0  0  0
 29 32  1  0  0  0  0
 28 33  1  0  0  0  0
 33 34  1  0  0  0  0
 33 35  1  0  0  0  0
 33 36  1  0  0  0  0
M  END
> <ChemID>
101118

> <source_casrn>
111-18-2

> <CAS>
111-18-2

> <SMILES>
CN(C)CCCCCCN(C)C

> <NAME>
1,6-Hexanediamine, N,N,N',N'-tetramethyl-

> <preferred_name>
N,N,N',N`-Tetramethylhexanediamine

> <iupac>
C10H24N2

> <MPID>
20183

> <dsstox_substance_id>
DTXSID5033701

> <Canonical_QSARr>
CN(C)CCCCCCN(C)C

> <InChI_Code_QSARr>
InChI=1S/C10H24N2/c1-11(2)9-7-5-6-8-10-12(3)4/h5-10H2,1-4H3

> <InChI Key_QSARr>
TXXWBTOATXBWDR-UHFFFAOYSA-N

> <Salt_Solvent>
?

> <BP>
209.5

$$$$
101122
  -INDIGO-08031720192D

 22 21  0  0  0  0  0  0  0  0999 V2000
    4.1569    0.8000    0.0000 C   0  0  0  0  0  0  0  0  0  0  0  0
    5.5426    1.6000    0.0000 H   0  0  0  0  0  0  0  0  0  0  0  0
    5.5426    0.0000    0.0000 H   0  0  0  0  0  0  0  0  0  0  0  0
    4.1569    2.4000    0.0000 H   0  0  0  0  0  0  0  0  0  0  0  0
    2.7712    0.0000    0.0000 C   0  0  0  0  0  0  0  0  0  0  0  0
    3.3836   -1.4782    0.0000 H   0  0  0  0  0  0  0  0  0  0  0  0
    2.1589   -1.4782    0.0000 H   0  0  0  0  0  0  0  0  0  0  0  0
    1.3856    0.8000    0.0000 C   0  0  0  0  0  0  0  0  0  0  0  0
    0.7734    2.2782    0.0000 H   0  0  0  0  0  0  0  0  0  0  0  0
    1.9979    2.2782    0.0000 H   0  0  0  0  0  0  0  0  0  0  0  0
    0.0001    0.0000    0.0000 C   0  0  0  0  0  0  0  0  0  0  0  0
    0.6122   -1.4782    0.0000 H   0  0  0  0  0  0  0  0  0  0  0  0
   -0.6122   -1.4782    0.0000 H   0  0  0  0  0  0  0  0  0  0  0  0
   -1.3856    0.8000    0.0000 C   0  0  0  0  0  0  0  0  0  0  0  0
   -1.9979    2.2782    0.0000 H   0  0  0  0  0  0  0  0  0  0  0  0
   -0.7734    2.2782    0.0000 H   0  0  0  0  0  0  0  0  0  0  0  0
   -2.7712    0.0000    0.0000 C   0  0  0  0  0  0  0  0  0  0  0  0
   -2.1589   -1.4782    0.0000 H   0  0  0  0  0  0  0  0  0  0  0  0
   -3.3836   -1.4782    0.0000 H   0  0  0  0  0  0  0  0  0  0  0  0
   -4.1569    0.8000    0.0000 N   0  0  0  0  0  0  0  0  0  0  0  0
   -5.5426    0.0000    0.0000 H   0  0  0  0  0  0  0  0  0  0  0  0
   -4.1569    2.4000    0.0000 H   0  0  0  0  0  0  0  0  0  0  0  0
  1  2  1  0  0  0  0
  1  3  1  0  0  0  0
  1  4  1  0  0  0  0
  1  5  1  0  0  0  0
  5  6  1  0  0  0  0
  5  7  1  0  0  0  0
  5  8  1  0  0  0  0
  8  9  1  0  0  0  0
  8 10  1  0  0  0  0
  8 11  1  0  0  0  0
 11 12  1  0  0  0  0
 11 13  1  0  0  0  0
 11 14  1  0  0  0  0
 14 15  1  0  0  0  0
 14 16  1  0  0  0  0
 14 17  1  0  0  0  0
 17 18  1  0  0  0  0
 17 19  1  0  0  0  0
 17 20  1  0  0  0  0
 20 21  1  0  0  0  0
 20 22  1  0  0  0  0
M  END
> <ChemID>
101122

> <source_casrn>
111-26-2

> <CAS>
111-26-2

> <SMILES>
CCCCCCN

> <NAME>
N-HEXYLAMINE

> <preferred_name>
Hexylamine

> <iupac>
hexan-1-amine

> <MPID>
20187

> <dsstox_substance_id>
DTXSID3021930

> <Canonical_QSARr>
CCCCCCN

> <InChI_Code_QSARr>
InChI=1S/C6H15N/c1-2-3-4-5-6-7/h2-7H2,1H3

> <InChI Key_QSARr>
BMVXCPBXGZKUPN-UHFFFAOYSA-N

> <Salt_Solvent>
?

> <BP>
132.8

$$$$
101126
  -INDIGO-08031720192D

 19 18  0  0  0  0  0  0  0  0999 V2000
    1.3857    0.8000    0.0000 C   0  0  0  0  0  0  0  0  0  0  0  0
    1.9979    2.2782    0.0000 H   0  0  0  0  0  0  0  0  0  0  0  0
    0.7734    2.2782    0.0000 H   0  0  0  0  0  0  0  0  0  0  0  0
    0.0001    0.0000    0.0000 C   0  0  0  0  0  0  0  0  0  0  0  0
   -0.6123   -1.4782    0.0000 H   0  0  0  0  0  0  0  0  0  0  0  0
    0.6122   -1.4782    0.0000 H   0  0  0  0  0  0  0  0  0  0  0  0
   -1.3856    0.8000    0.0000 C   0  0  0  0  0  0  0  0  0  0  0  0
   -0.7733    2.2782    0.0000 H   0  0  0  0  0  0  0  0  0  0  0  0
   -1.9979    2.2782    0.0000 H   0  0  0  0  0  0  0  0  0  0  0  0
   -2.7713    0.0000    0.0000 C   0  0  0  0  0  0  0  0  0  0  0  0
   -4.1569   -0.8000    0.0000 H   0  0  0  0  0  0  0  0  0  0  0  0
   -4.1569    0.8000    0.0000 H   0  0  0  0  0  0  0  0  0  0  0  0
   -2.7713   -1.6000    0.0000 H   0  0  0  0  0  0  0  0  0  0  0  0
    2.7712    0.0000    0.0000 O   0  0  0  0  0  0  0  0  0  0  0  0
    4.1569    0.8000    0.0000 C   0  0  0  0  0  0  0  0  0  0  0  0
    4.1569    2.4000    0.0000 H   0  0  0  0  0  0  0  0  0  0  0  0
    5.5425    0.0000    0.0000 C   0  0  0  0  0  0  0  0  0  0  0  0
    6.9282    0.8000    0.0000 H   0  0  0  0  0  0  0  0  0  0  0  0
    5.5425   -1.6000    0.0000 H   0  0  0  0  0  0  0  0  0  0  0  0
  1  2  1  0  0  0  0
  1  3  1  0  0  0  0
  1  4  1  0  0  0  0
  4  5  1  0  0  0  0
  4  6  1  0  0  0  0
  4  7  1  0  0  0  0
  7  8  1  0  0  0  0
  7  9  1  0  0  0  0
  7 10  1  0  0  0  0
 10 11  1  0  0  0  0
 10 12  1  0  0  0  0
 10 13  1  0  0  0  0
  1 14  1  0  0  0  0
 14 15  1  0  0  0  0
 15 16  1  0  0  0  0
 15 17  2  0  0  0  0
 17 18  1  0  0  0  0
 17 19  1  0  0  0  0
M  END
> <ChemID>
101126

> <source_casrn>
111-34-2

> <CAS>
111-34-2

> <SMILES>
CCCCOC=C

> <NAME>
BUTYL VINYL ETHER

> <preferred_name>
Butyl vinyl ether

> <iupac>
butyl vinyl ether

> <MPID>
20191

> <dsstox_substance_id>
DTXSID5051575

> <Canonical_QSARr>
CCCCOC=C

> <InChI_Code_QSARr>
InChI=1S/C6H12O/c1-3-5-6-7-4-2/h4H,2-3,5-6H2,1H3

> <InChI Key_QSARr>
UZKWTJUDCOPSNM-UHFFFAOYSA-N

> <Salt_Solvent>
?

> <BP>
94.0

$$$$
101130
  -INDIGO-08031720192D

 18 17  0  0  0  0  0  0  0  0999 V2000
    2.7713    0.0000    0.0000 O   0  0  0  0  0  0  0  0  0  0  0  0
    4.1569    0.8000    0.0000 H   0  0  0  0  0  0  0  0  0  0  0  0
    1.3856    0.8000    0.0000 C   0  0  0  0  0  0  0  0  0  0  0  0
    1.9979    2.2782    0.0000 H   0  0  0  0  0  0  0  0  0  0  0  0
    0.7733    2.2782    0.0000 H   0  0  0  0  0  0  0  0  0  0  0  0
   -0.0001    0.0000    0.0000 C   0  0  0  0  0  0  0  0  0  0  0  0
   -0.6122   -1.4782    0.0000 H   0  0  0  0  0  0  0  0  0  0  0  0
    0.6123   -1.4782    0.0000 H   0  0  0  0  0  0  0  0  0  0  0  0
   -1.3856    0.8000    0.0000 N   0  0  0  0  0  0  0  0  0  0  0  0
   -1.3856    2.4000    0.0000 H   0  0  0  0  0  0  0  0  0  0  0  0
   -2.7712    0.0000    0.0000 C   0  0  0  0  0  0  0  0  0  0  0  0
   -3.3835   -1.4782    0.0000 H   0  0  0  0  0  0  0  0  0  0  0  0
   -2.1591   -1.4782    0.0000 H   0  0  0  0  0  0  0  0  0  0  0  0
   -4.1569    0.8000    0.0000 C   0  0  0  0  0  0  0  0  0  0  0  0
   -3.5446    2.2782    0.0000 H   0  0  0  0  0  0  0  0  0  0  0  0
   -4.7692    2.2782    0.0000 H   0  0  0  0  0  0  0  0  0  0  0  0
   -5.5425    0.0000    0.0000 O   0  0  0  0  0  0  0  0  0  0  0  0
   -6.9282    0.8000    0.0000 H   0  0  0  0  0  0  0  0  0  0  0  0
  1  2  1  0  0  0  0
  1  3  1  0  0  0  0
  3  4  1  0  0  0  0
  3  5  1  0  0  0  0
  3  6  1  0  0  0  0
  6  7  1  0  0  0  0
  6  8  1  0  0  0  0
  6  9  1  0  0  0  0
  9 10  1  0  0  0  0
  9 11  1  0  0  0  0
 11 12  1  0  0  0  0
 11 13  1  0  0  0  0
 11 14  1  0  0  0  0
 14 15  1  0  0  0  0
 14 16  1  0  0  0  0
 14 17  1  0  0  0  0
 17 18  1  0  0  0  0
M  END
> <ChemID>
101130

> <source_casrn>
111-42-2

> <CAS>
111-42-2

> <SMILES>
OCCNCCO

> <NAME>
DIETHANOLAMINE

> <preferred_name>
Diethanolamine

> <iupac>
2,2'-iminodiethanol

> <MPID>
20195

> <dsstox_substance_id>
DTXSID3021932

> <Canonical_QSARr>
OCCNCCO

> <InChI_Code_QSARr>
InChI=1S/C4H11NO2/c6-3-1-5-2-4-7/h5-7H,1-4H2

> <InChI Key_QSARr>
ZBCBWPMODOFKDW-UHFFFAOYSA-N

> <Salt_Solvent>
?

> <BP>
268.8

$$$$
101134
  -INDIGO-08031720192D

 17 16  0  0  0  0  0  0  0  0999 V2000
    2.7713    0.0000    0.0000 O   0  0  0  0  0  0  0  0  0  0  0  0
    4.1569    0.8000    0.0000 H   0  0  0  0  0  0  0  0  0  0  0  0
    1.3856    0.8000    0.0000 C   0  0  0  0  0  0  0  0  0  0  0  0
    0.7733    2.2782    0.0000 H   0  0  0  0  0  0  0  0  0  0  0  0
    1.9979    2.2782    0.0000 H   0  0  0  0  0  0  0  0  0  0  0  0
   -0.0001    0.0000    0.0000 C   0  0  0  0  0  0  0  0  0  0  0  0
    0.6123   -1.4782    0.0000 H   0  0  0  0  0  0  0  0  0  0  0  0
   -0.6122   -1.4782    0.0000 H   0  0  0  0  0  0  0  0  0  0  0  0
   -1.3856    0.8000    0.0000 O   0  0  0  0  0  0  0  0  0  0  0  0
   -2.7712    0.0000    0.0000 C   0  0  0  0  0  0  0  0  0  0  0  0
   -2.1591   -1.4782    0.0000 H   0  0  0  0  0  0  0  0  0  0  0  0
   -3.3835   -1.4782    0.0000 H   0  0  0  0  0  0  0  0  0  0  0  0
   -4.1569    0.8000    0.0000 C   0  0  0  0  0  0  0  0  0  0  0  0
   -4.7692    2.2782    0.0000 H   0  0  0  0  0  0  0  0  0  0  0  0
   -3.5446    2.2782    0.0000 H   0  0  0  0  0  0  0  0  0  0  0  0
   -5.5425    0.0000    0.0000 O   0  0  0  0  0  0  0  0  0  0  0  0
   -6.9282    0.8000    0.0000 H   0  0  0  0  0  0  0  0  0  0  0  0
  1  2  1  0  0  0  0
  1  3  1  0  0  0  0
  3  4  1  0  0  0  0
  3  5  1  0  0  0  0
  3  6  1  0  0  0  0
  6  7  1  0  0  0  0
  6  8  1  0  0  0  0
  6  9  1  0  0  0  0
  9 10  1  0  0  0  0
 10 11  1  0  0  0  0
 10 12  1  0  0  0  0
 10 13  1  0  0  0  0
 13 14  1  0  0  0  0
 13 15  1  0  0  0  0
 13 16  1  0  0  0  0
 16 17  1  0  0  0  0
M  END
> <ChemID>
101134

> <source_casrn>
111-46-6

> <CAS>
111-46-6

> <SMILES>
OCCOCCO

> <NAME>
DIETHYLENE GLYCOL

> <preferred_name>
Diethylene glycol

> <iupac>
2,2'-oxydiethanol

> <MPID>
20199

> <dsstox_substance_id>
DTXSID8020462

> <Canonical_QSARr>
OCCOCCO

> <InChI_Code_QSARr>
InChI=1S/C4H10O3/c5-1-3-7-4-2-6/h5-6H,1-4H2

> <InChI Key_QSARr>
MTHSVFCYNBDYFN-UHFFFAOYSA-N

> <Salt_Solvent>
?

> <BP>
245.8

$$$$
101138
  -INDIGO-08031720192D

 30 29  0  0  0  0  0  0  0  0999 V2000
   -2.7713    1.6000    0.0000 C   0  0  0  0  0  0  0  0  0  0  0  0
   -2.7713    3.2000    0.0000 H   0  0  0  0  0  0  0  0  0  0  0  0
   -4.1569    2.4000    0.0000 H   0  0  0  0  0  0  0  0  0  0  0  0
   -1.3856    2.4000    0.0000 H   0  0  0  0  0  0  0  0  0  0  0  0
   -2.7713   -0.0000    0.0000 N   0  0  0  0  0  0  0  0  0  0  0  0
   -1.3856   -0.8000    0.0000 C   0  0  0  0  0  0  0  0  0  0  0  0
   -0.7733   -2.2782    0.0000 H   0  0  0  0  0  0  0  0  0  0  0  0
   -1.9980   -2.2782    0.0000 H   0  0  0  0  0  0  0  0  0  0  0  0
    0.0001   -0.0000    0.0000 C   0  0  0  0  0  0  0  0  0  0  0  0
   -0.6123    1.4782    0.0000 H   0  0  0  0  0  0  0  0  0  0  0  0
    0.6122    1.4782    0.0000 H   0  0  0  0  0  0  0  0  0  0  0  0
    1.3856   -0.8000    0.0000 C   0  0  0  0  0  0  0  0  0  0  0  0
    1.9979   -2.2782    0.0000 H   0  0  0  0  0  0  0  0  0  0  0  0
    0.7734   -2.2782    0.0000 H   0  0  0  0  0  0  0  0  0  0  0  0
    2.7713   -0.0000    0.0000 C   0  0  0  0  0  0  0  0  0  0  0  0
    2.1589    1.4782    0.0000 H   0  0  0  0  0  0  0  0  0  0  0  0
    3.3836    1.4782    0.0000 H   0  0  0  0  0  0  0  0  0  0  0  0
    4.1570   -0.8000    0.0000 N   0  0  0  0  0  0  0  0  0  0  0  0
    5.5425   -0.0000    0.0000 C   0  0  0  0  0  0  0  0  0  0  0  0
    6.9282    0.8000    0.0000 H   0  0  0  0  0  0  0  0  0  0  0  0
    6.9282   -0.8000    0.0000 H   0  0  0  0  0  0  0  0  0  0  0  0
    5.5425    1.6000    0.0000 H   0  0  0  0  0  0  0  0  0  0  0  0
    4.1570   -2.4000    0.0000 C   0  0  0  0  0  0  0  0  0  0  0  0
    4.1570   -4.0000    0.0000 H   0  0  0  0  0  0  0  0  0  0  0  0
    5.5425   -3.2000    0.0000 H   0  0  0  0  0  0  0  0  0  0  0  0
    2.7713   -3.2000    0.0000 H   0  0  0  0  0  0  0  0  0  0  0  0
   -4.1569   -0.8000    0.0000 C   0  0  0  0  0  0  0  0  0  0  0  0
   -5.5426   -1.6000    0.0000 H   0  0  0  0  0  0  0  0  0  0  0  0
   -5.5426   -0.0000    0.0000 H   0  0  0  0  0  0  0  0  0  0  0  0
   -4.1569   -2.4000    0.0000 H   0  0  0  0  0  0  0  0  0  0  0  0
  1  2  1  0  0  0  0
  1  3  1  0  0  0  0
  1  4  1  0  0  0  0
  1  5  1  0  0  0  0
  5  6  1  0  0  0  0
  6  7  1  0  0  0  0
  6  8  1  0  0  0  0
  6  9  1  0  0  0  0
  9 10  1  0  0  0  0
  9 11  1  0  0  0  0
  9 12  1  0  0  0  0
 12 13  1  0  0  0  0
 12 14  1  0  0  0  0
 12 15  1  0  0  0  0
 15 16  1  0  0  0  0
 15 17  1  0  0  0  0
 15 18  1  0  0  0  0
 18 19  1  0  0  0  0
 19 20  1  0  0  0  0
 19 21  1  0  0  0  0
 19 22  1  0  0  0  0
 18 23  1  0  0  0  0
 23 24  1  0  0  0  0
 23 25  1  0  0  0  0
 23 26  1  0  0  0  0
  5 27  1  0  0  0  0
 27 28  1  0  0  0  0
 27 29  1  0  0  0  0
 27 30  1  0  0  0  0
M  END
> <ChemID>
101138

> <source_casrn>
111-51-3

> <CAS>
111-51-3

> <SMILES>
CN(C)CCCCN(C)C

> <NAME>
1,4-Butanediamine, N,N,N',N'-tetramethyl-

> <preferred_name>
1,4-Butanediamine, N,N,N',N'-tetramethyl-

> <iupac>
N,N,N',N'-tetramethylbutane-1,4-diamine

> <MPID>
20203

> <dsstox_substance_id>
DTXSID0059403

> <Canonical_QSARr>
CN(C)CCCCN(C)C

> <InChI_Code_QSARr>
InChI=1S/C8H20N2/c1-9(2)7-5-6-8-10(3)4/h5-8H2,1-4H3

> <InChI Key_QSARr>
VEAZEPMQWHPHAG-UHFFFAOYSA-N

> <Salt_Solvent>
?

> <BP>
168.0

$$$$
101142
  -INDIGO-08031720192D

 24 23  0  0  0  0  0  0  0  0999 V2000
    4.1569    0.8000    0.0000 C   0  0  0  0  0  0  0  0  0  0  0  0
    5.5426    1.6000    0.0000 H   0  0  0  0  0  0  0  0  0  0  0  0
    5.5426    0.0000    0.0000 H   0  0  0  0  0  0  0  0  0  0  0  0
    4.1569    2.4000    0.0000 H   0  0  0  0  0  0  0  0  0  0  0  0
    2.7713    0.0000    0.0000 C   0  0  0  0  0  0  0  0  0  0  0  0
    3.3835   -1.4782    0.0000 H   0  0  0  0  0  0  0  0  0  0  0  0
    2.1590   -1.4782    0.0000 H   0  0  0  0  0  0  0  0  0  0  0  0
    1.3856    0.8000    0.0000 C   0  0  0  0  0  0  0  0  0  0  0  0
    0.7733    2.2782    0.0000 H   0  0  0  0  0  0  0  0  0  0  0  0
    1.9980    2.2782    0.0000 H   0  0  0  0  0  0  0  0  0  0  0  0
   -0.0001    0.0000    0.0000 C   0  0  0  0  0  0  0  0  0  0  0  0
    0.6123   -1.4782    0.0000 H   0  0  0  0  0  0  0  0  0  0  0  0
   -0.6122   -1.4782    0.0000 H   0  0  0  0  0  0  0  0  0  0  0  0
   -1.3856    0.8000    0.0000 C   0  0  0  0  0  0  0  0  0  0  0  0
   -1.9979    2.2782    0.0000 H   0  0  0  0  0  0  0  0  0  0  0  0
   -0.7734    2.2782    0.0000 H   0  0  0  0  0  0  0  0  0  0  0  0
   -2.7713    0.0000    0.0000 C   0  0  0  0  0  0  0  0  0  0  0  0
   -2.1589   -1.4782    0.0000 H   0  0  0  0  0  0  0  0  0  0  0  0
   -3.3836   -1.4782    0.0000 H   0  0  0  0  0  0  0  0  0  0  0  0
   -4.1570    0.8000    0.0000 C   0  0  0  0  0  0  0  0  0  0  0  0
   -4.1570    2.4000    0.0000 H   0  0  0  0  0  0  0  0  0  0  0  0
   -5.5425    0.0000    0.0000 C   0  0  0  0  0  0  0  0  0  0  0  0
   -6.9282    0.8000    0.0000 H   0  0  0  0  0  0  0  0  0  0  0  0
   -5.5425   -1.6000    0.0000 H   0  0  0  0  0  0  0  0  0  0  0  0
  1  2  1  0  0  0  0
  1  3  1  0  0  0  0
  1  4  1  0  0  0  0
  1  5  1  0  0  0  0
  5  6  1  0  0  0  0
  5  7  1  0  0  0  0
  5  8  1  0  0  0  0
  8  9  1  0  0  0  0
  8 10  1  0  0  0  0
  8 11  1  0  0  0  0
 11 12  1  0  0  0  0
 11 13  1  0  0  0  0
 11 14  1  0  0  0  0
 14 15  1  0  0  0  0
 14 16  1  0  0  0  0
 14 17  1  0  0  0  0
 17 18  1  0  0  0  0
 17 19  1  0  0  0  0
 17 20  1  0  0  0  0
 20 21  1  0  0  0  0
 20 22  2  0  0  0  0
 22 23  1  0  0  0  0
 22 24  1  0  0  0  0
M  END
> <ChemID>
101142

> <source_casrn>
111-66-0

> <CAS>
111-66-0

> <SMILES>
CCCCCCC=C

> <NAME>
1-OCTENE

> <preferred_name>
1-Octene

> <iupac>
oct-1-ene

> <MPID>
20207

> <dsstox_substance_id>
DTXSID6025804

> <Canonical_QSARr>
CCCCCCC=C

> <InChI_Code_QSARr>
InChI=1S/C8H16/c1-3-5-7-8-6-4-2/h3H,1,4-8H2,2H3

> <InChI Key_QSARr>
KWKAKUADMBZCLK-UHFFFAOYSA-N

> <Salt_Solvent>
?

> <BP>
121.2

$$$$
101146
  -INDIGO-08031720192D

 24 23  0  0  0  0  0  0  0  0999 V2000
    4.1569    0.8000    0.0000 C   0  0  0  0  0  0  0  0  0  0  0  0
    5.5426    1.6000    0.0000 H   0  0  0  0  0  0  0  0  0  0  0  0
    5.5426    0.0000    0.0000 H   0  0  0  0  0  0  0  0  0  0  0  0
    4.1569    2.4000    0.0000 H   0  0  0  0  0  0  0  0  0  0  0  0
    2.7713    0.0000    0.0000 C   0  0  0  0  0  0  0  0  0  0  0  0
    2.1590   -1.4782    0.0000 H   0  0  0  0  0  0  0  0  0  0  0  0
    3.3835   -1.4782    0.0000 H   0  0  0  0  0  0  0  0  0  0  0  0
    1.3856    0.8000    0.0000 C   0  0  0  0  0  0  0  0  0  0  0  0
    1.9980    2.2782    0.0000 H   0  0  0  0  0  0  0  0  0  0  0  0
    0.7733    2.2782    0.0000 H   0  0  0  0  0  0  0  0  0  0  0  0
   -0.0001    0.0000    0.0000 C   0  0  0  0  0  0  0  0  0  0  0  0
   -0.6122   -1.4782    0.0000 H   0  0  0  0  0  0  0  0  0  0  0  0
    0.6123   -1.4782    0.0000 H   0  0  0  0  0  0  0  0  0  0  0  0
   -1.3856    0.8000    0.0000 C   0  0  0  0  0  0  0  0  0  0  0  0
   -0.7734    2.2782    0.0000 H   0  0  0  0  0  0  0  0  0  0  0  0
   -1.9979    2.2782    0.0000 H   0  0  0  0  0  0  0  0  0  0  0  0
   -2.7713    0.0000    0.0000 C   0  0  0  0  0  0  0  0  0  0  0  0
   -3.3836   -1.4782    0.0000 H   0  0  0  0  0  0  0  0  0  0  0  0
   -2.1589   -1.4782    0.0000 H   0  0  0  0  0  0  0  0  0  0  0  0
   -4.1570    0.8000    0.0000 C   0  0  0  0  0  0  0  0  0  0  0  0
   -3.5446    2.2782    0.0000 H   0  0  0  0  0  0  0  0  0  0  0  0
   -4.7692    2.2782    0.0000 H   0  0  0  0  0  0  0  0  0  0  0  0
   -5.5425    0.0000    0.0000 O   0  0  0  0  0  0  0  0  0  0  0  0
   -6.9282    0.8000    0.0000 H   0  0  0  0  0  0  0  0  0  0  0  0
  1  2  1  0  0  0  0
  1  3  1  0  0  0  0
  1  4  1  0  0  0  0
  1  5  1  0  0  0  0
  5  6  1  0  0  0  0
  5  7  1  0  0  0  0
  5  8  1  0  0  0  0
  8  9  1  0  0  0  0
  8 10  1  0  0  0  0
  8 11  1  0  0  0  0
 11 12  1  0  0  0  0
 11 13  1  0  0  0  0
 11 14  1  0  0  0  0
 14 15  1  0  0  0  0
 14 16  1  0  0  0  0
 14 17  1  0  0  0  0
 17 18  1  0  0  0  0
 17 19  1  0  0  0  0
 17 20  1  0  0  0  0
 20 21  1  0  0  0  0
 20 22  1  0  0  0  0
 20 23  1  0  0  0  0
 23 24  1  0  0  0  0
M  END
> <ChemID>
101146

> <source_casrn>
111-70-6

> <CAS>
111-70-6

> <SMILES>
CCCCCCCO

> <NAME>
1-HEPTANOL

> <preferred_name>
1-Heptanol

> <iupac>
heptan-1-ol

> <MPID>
20211

> <dsstox_substance_id>
DTXSID8021937

> <Canonical_QSARr>
CCCCCCCO

> <InChI_Code_QSARr>
InChI=1S/C7H16O/c1-2-3-4-5-6-7-8/h8H,2-7H2,1H3

> <InChI Key_QSARr>
BBMCTIGTTCKYKF-UHFFFAOYSA-N

> <Salt_Solvent>
?

> <BP>
176.4

$$$$
101150
  -INDIGO-08031720192D

 22 21  0  0  0  0  0  0  0  0999 V2000
    6.9281    0.8000    0.0000 O   0  0  0  0  0  0  0  0  0  0  0  0
    8.3138   -0.0000    0.0000 H   0  0  0  0  0  0  0  0  0  0  0  0
    5.5426   -0.0000    0.0000 C   0  0  0  0  0  0  0  0  0  0  0  0
    4.9303   -1.4782    0.0000 H   0  0  0  0  0  0  0  0  0  0  0  0
    6.1548   -1.4782    0.0000 H   0  0  0  0  0  0  0  0  0  0  0  0
    4.1569    0.8000    0.0000 C   0  0  0  0  0  0  0  0  0  0  0  0
    4.7693    2.2782    0.0000 H   0  0  0  0  0  0  0  0  0  0  0  0
    3.5446    2.2782    0.0000 H   0  0  0  0  0  0  0  0  0  0  0  0
    2.7712   -0.0000    0.0000 O   0  0  0  0  0  0  0  0  0  0  0  0
    1.3857    0.8000    0.0000 C   0  0  0  0  0  0  0  0  0  0  0  0
    1.9979    2.2782    0.0000 H   0  0  0  0  0  0  0  0  0  0  0  0
    0.7733    2.2782    0.0000 H   0  0  0  0  0  0  0  0  0  0  0  0
    0.0000   -0.0000    0.0000 C   0  0  0  0  0  0  0  0  0  0  0  0
   -0.6124   -1.4782    0.0000 H   0  0  0  0  0  0  0  0  0  0  0  0
    0.6124   -1.4782    0.0000 H   0  0  0  0  0  0  0  0  0  0  0  0
   -1.3857    0.8000    0.0000 C   0  0  0  0  0  0  0  0  0  0  0  0
   -0.7733    2.2782    0.0000 H   0  0  0  0  0  0  0  0  0  0  0  0
   -1.9979    2.2782    0.0000 H   0  0  0  0  0  0  0  0  0  0  0  0
   -2.7712   -0.0000    0.0000 C   0  0  0  0  0  0  0  0  0  0  0  0
   -4.1569   -0.8000    0.0000 H   0  0  0  0  0  0  0  0  0  0  0  0
   -4.1569    0.8000    0.0000 H   0  0  0  0  0  0  0  0  0  0  0  0
   -2.7712   -1.6000    0.0000 H   0  0  0  0  0  0  0  0  0  0  0  0
  1  2  1  0  0  0  0
  1  3  1  0  0  0  0
  3  4  1  0  0  0  0
  3  5  1  0  0  0  0
  3  6  1  0  0  0  0
  6  7  1  0  0  0  0
  6  8  1  0  0  0  0
  6  9  1  0  0  0  0
  9 10  1  0  0  0  0
 10 11  1  0  0  0  0
 10 12  1  0  0  0  0
 10 13  1  0  0  0  0
 13 14  1  0  0  0  0
 13 15  1  0  0  0  0
 13 16  1  0  0  0  0
 16 17  1  0  0  0  0
 16 18  1  0  0  0  0
 16 19  1  0  0  0  0
 19 20  1  0  0  0  0
 19 21  1  0  0  0  0
 19 22  1  0  0  0  0
M  END
> <ChemID>
101150

> <source_casrn>
111-76-2

> <CAS>
111-76-2

> <SMILES>
CCCCOCCO

> <NAME>
2-BUTOXYETHANOL

> <preferred_name>
2-Butoxyethanol

> <iupac>
C6H14O2

> <MPID>
20215

> <dsstox_substance_id>
DTXSID1024097

> <Canonical_QSARr>
CCCCOCCO

> <InChI_Code_QSARr>
InChI=1S/C6H14O2/c1-2-3-5-8-6-4-7/h7H,2-6H2,1H3

> <InChI Key_QSARr>
POAOYUHQDCAZBD-UHFFFAOYSA-N

> <Salt_Solvent>
?

> <BP>
168.4

$$$$
101154
  -INDIGO-08031720192D

 41 40  0  0  0  0  0  0  0  0999 V2000
   -8.3138    0.0000    0.0000 C   0  0  0  0  0  0  0  0  0  0  0  0
   -6.9282    0.8000    0.0000 C   0  0  0  0  0  0  0  0  0  0  0  0
   -6.3158    2.2782    0.0000 H   0  0  0  0  0  0  0  0  0  0  0  0
   -7.5406    2.2782    0.0000 H   0  0  0  0  0  0  0  0  0  0  0  0
   -5.5426    0.0000    0.0000 C   0  0  0  0  0  0  0  0  0  0  0  0
   -6.1550   -1.4782    0.0000 H   0  0  0  0  0  0  0  0  0  0  0  0
   -4.9301   -1.4782    0.0000 H   0  0  0  0  0  0  0  0  0  0  0  0
   -4.1569    0.8000    0.0000 C   0  0  0  0  0  0  0  0  0  0  0  0
   -3.5445    2.2782    0.0000 H   0  0  0  0  0  0  0  0  0  0  0  0
   -4.7693    2.2782    0.0000 H   0  0  0  0  0  0  0  0  0  0  0  0
   -2.7713    0.0000    0.0000 C   0  0  0  0  0  0  0  0  0  0  0  0
   -3.3837   -1.4782    0.0000 H   0  0  0  0  0  0  0  0  0  0  0  0
   -2.1589   -1.4782    0.0000 H   0  0  0  0  0  0  0  0  0  0  0  0
   -1.3856    0.8000    0.0000 C   0  0  0  0  0  0  0  0  0  0  0  0
   -0.7732    2.2782    0.0000 H   0  0  0  0  0  0  0  0  0  0  0  0
   -1.9981    2.2782    0.0000 H   0  0  0  0  0  0  0  0  0  0  0  0
    0.0000    0.0000    0.0000 C   0  0  0  0  0  0  0  0  0  0  0  0
   -0.6124   -1.4782    0.0000 H   0  0  0  0  0  0  0  0  0  0  0  0
    0.6124   -1.4782    0.0000 H   0  0  0  0  0  0  0  0  0  0  0  0
    1.3856    0.8000    0.0000 C   0  0  0  0  0  0  0  0  0  0  0  0
    1.9981    2.2782    0.0000 H   0  0  0  0  0  0  0  0  0  0  0  0
    0.7732    2.2782    0.0000 H   0  0  0  0  0  0  0  0  0  0  0  0
    2.7713    0.0000    0.0000 C   0  0  0  0  0  0  0  0  0  0  0  0
    2.1589   -1.4782    0.0000 H   0  0  0  0  0  0  0  0  0  0  0  0
    3.3837   -1.4782    0.0000 H   0  0  0  0  0  0  0  0  0  0  0  0
    4.1569    0.8000    0.0000 C   0  0  0  0  0  0  0  0  0  0  0  0
    4.7693    2.2782    0.0000 H   0  0  0  0  0  0  0  0  0  0  0  0
    3.5445    2.2782    0.0000 H   0  0  0  0  0  0  0  0  0  0  0  0
    5.5426    0.0000    0.0000 C   0  0  0  0  0  0  0  0  0  0  0  0
    4.9301   -1.4782    0.0000 H   0  0  0  0  0  0  0  0  0  0  0  0
    6.1550   -1.4782    0.0000 H   0  0  0  0  0  0  0  0  0  0  0  0
    6.9282    0.8000    0.0000 C   0  0  0  0  0  0  0  0  0  0  0  0
    8.3138    1.6000    0.0000 H   0  0  0  0  0  0  0  0  0  0  0  0
    8.3138    0.0000    0.0000 H   0  0  0  0  0  0  0  0  0  0  0  0
    6.9282    2.4000    0.0000 H   0  0  0  0  0  0  0  0  0  0  0  0
   -9.6995    0.8000    0.0000 O   0  0  0  0  0  0  0  0  0  0  0  0
  -11.0851    0.0000    0.0000 C   0  0  0  0  0  0  0  0  0  0  0  0
  -12.4708   -0.8000    0.0000 H   0  0  0  0  0  0  0  0  0  0  0  0
  -12.4708    0.8000    0.0000 H   0  0  0  0  0  0  0  0  0  0  0  0
  -11.0851   -1.6000    0.0000 H   0  0  0  0  0  0  0  0  0  0  0  0
   -8.3138   -1.6000    0.0000 O   0  0  0  0  0  0  0  0  0  0  0  0
  1  2  1  0  0  0  0
  2  3  1  0  0  0  0
  2  4  1  0  0  0  0
  2  5  1  0  0  0  0
  5  6  1  0  0  0  0
  5  7  1  0  0  0  0
  5  8  1  0  0  0  0
  8  9  1  0  0  0  0
  8 10  1  0  0  0  0
  8 11  1  0  0  0  0
 11 12  1  0  0  0  0
 11 13  1  0  0  0  0
 11 14  1  0  0  0  0
 14 15  1  0  0  0  0
 14 16  1  0  0  0  0
 14 17  1  0  0  0  0
 17 18  1  0  0  0  0
 17 19  1  0  0  0  0
 17 20  1  0  0  0  0
 20 21  1  0  0  0  0
 20 22  1  0  0  0  0
 20 23  1  0  0  0  0
 23 24  1  0  0  0  0
 23 25  1  0  0  0  0
 23 26  1  0  0  0  0
 26 27  1  0  0  0  0
 26 28  1  0  0  0  0
 26 29  1  0  0  0  0
 29 30  1  0  0  0  0
 29 31  1  0  0  0  0
 29 32  1  0  0  0  0
 32 33  1  0  0  0  0
 32 34  1  0  0  0  0
 32 35  1  0  0  0  0
  1 36  1  0  0  0  0
 36 37  1  0  0  0  0
 37 38  1  0  0  0  0
 37 39  1  0  0  0  0
 37 40  1  0  0  0  0
  1 41  2  0  0  0  0
M  END
> <ChemID>
101154

> <source_casrn>
111-82-0

> <CAS>
111-82-0

> <SMILES>
CCCCCCCCCCCC(=O)OC

> <NAME>
METHYL LAURATE

> <preferred_name>
Methyl dodecanoate

> <iupac>
methyl dodecanoate

> <MPID>
20219

> <dsstox_substance_id>
DTXSID5026889

> <Canonical_QSARr>
CCCCCCCCCCCC(=O)OC

> <InChI_Code_QSARr>
InChI=1S/C13H26O2/c1-3-4-5-6-7-8-9-10-11-12-13(14)15-2/h3-12H2,1-2H3

> <InChI Key_QSARr>
UQDUPQYQJKYHQI-UHFFFAOYSA-N

> <Salt_Solvent>
?

> <BP>
267.0

$$$$
101158
  -INDIGO-08031720192D

 28 27  0  0  0  0  0  0  0  0999 V2000
    5.5427   -0.0000    0.0000 C   0  0  0  0  0  0  0  0  0  0  0  0
    6.9282   -0.8000    0.0000 H   0  0  0  0  0  0  0  0  0  0  0  0
    6.9282    0.8000    0.0000 H   0  0  0  0  0  0  0  0  0  0  0  0
    5.5427   -1.6000    0.0000 H   0  0  0  0  0  0  0  0  0  0  0  0
    4.1569    0.8000    0.0000 C   0  0  0  0  0  0  0  0  0  0  0  0
    3.5446    2.2782    0.0000 H   0  0  0  0  0  0  0  0  0  0  0  0
    4.7692    2.2782    0.0000 H   0  0  0  0  0  0  0  0  0  0  0  0
    2.7714   -0.0000    0.0000 C   0  0  0  0  0  0  0  0  0  0  0  0
    3.3835   -1.4782    0.0000 H   0  0  0  0  0  0  0  0  0  0  0  0
    2.1591   -1.4782    0.0000 H   0  0  0  0  0  0  0  0  0  0  0  0
    1.3856    0.8000    0.0000 C   0  0  0  0  0  0  0  0  0  0  0  0
    0.7733    2.2782    0.0000 H   0  0  0  0  0  0  0  0  0  0  0  0
    1.9980    2.2782    0.0000 H   0  0  0  0  0  0  0  0  0  0  0  0
    0.0001   -0.0000    0.0000 C   0  0  0  0  0  0  0  0  0  0  0  0
    0.6122   -1.4782    0.0000 H   0  0  0  0  0  0  0  0  0  0  0  0
   -0.6122   -1.4782    0.0000 H   0  0  0  0  0  0  0  0  0  0  0  0
   -1.3856    0.8000    0.0000 C   0  0  0  0  0  0  0  0  0  0  0  0
   -1.9980    2.2782    0.0000 H   0  0  0  0  0  0  0  0  0  0  0  0
   -0.7733    2.2782    0.0000 H   0  0  0  0  0  0  0  0  0  0  0  0
   -2.7712   -0.0000    0.0000 C   0  0  0  0  0  0  0  0  0  0  0  0
   -2.1591   -1.4782    0.0000 H   0  0  0  0  0  0  0  0  0  0  0  0
   -3.3835   -1.4782    0.0000 H   0  0  0  0  0  0  0  0  0  0  0  0
   -4.1569    0.8000    0.0000 C   0  0  0  0  0  0  0  0  0  0  0  0
   -4.7692    2.2782    0.0000 H   0  0  0  0  0  0  0  0  0  0  0  0
   -3.5446    2.2782    0.0000 H   0  0  0  0  0  0  0  0  0  0  0  0
   -5.5425   -0.0000    0.0000 N   0  0  0  0  0  0  0  0  0  0  0  0
   -6.9282    0.8000    0.0000 H   0  0  0  0  0  0  0  0  0  0  0  0
   -5.5425   -1.6000    0.0000 H   0  0  0  0  0  0  0  0  0  0  0  0
  1  2  1  0  0  0  0
  1  3  1  0  0  0  0
  1  4  1  0  0  0  0
  1  5  1  0  0  0  0
  5  6  1  0  0  0  0
  5  7  1  0  0  0  0
  5  8  1  0  0  0  0
  8  9  1  0  0  0  0
  8 10  1  0  0  0  0
  8 11  1  0  0  0  0
 11 12  1  0  0  0  0
 11 13  1  0  0  0  0
 11 14  1  0  0  0  0
 14 15  1  0  0  0  0
 14 16  1  0  0  0  0
 14 17  1  0  0  0  0
 17 18  1  0  0  0  0
 17 19  1  0  0  0  0
 17 20  1  0  0  0  0
 20 21  1  0  0  0  0
 20 22  1  0  0  0  0
 20 23  1  0  0  0  0
 23 24  1  0  0  0  0
 23 25  1  0  0  0  0
 23 26  1  0  0  0  0
 26 27  1  0  0  0  0
 26 28  1  0  0  0  0
M  END
> <ChemID>
101158

> <source_casrn>
111-86-4

> <CAS>
111-86-4

> <SMILES>
CCCCCCCCN

> <NAME>
N-OCTYLAMINE

> <preferred_name>
1-Octanamine

> <iupac>
octan-1-amine

> <MPID>
20223

> <dsstox_substance_id>
DTXSID8021939

> <Canonical_QSARr>
CCCCCCCCN

> <InChI_Code_QSARr>
InChI=1S/C8H19N/c1-2-3-4-5-6-7-8-9/h2-9H2,1H3

> <InChI Key_QSARr>
IOQPZZOEVPZRBK-UHFFFAOYSA-N

> <Salt_Solvent>
?

> <BP>
179.6

$$$$
101162
  -INDIGO-08031720192D

 19 18  0  0  0  0  0  0  0  0999 V2000
    1.3857    0.8000    0.0000 O   0  0  0  0  0  0  0  0  0  0  0  0
    2.7714    0.0000    0.0000 C   0  0  0  0  0  0  0  0  0  0  0  0
    2.1590   -1.4782    0.0000 H   0  0  0  0  0  0  0  0  0  0  0  0
    3.3835   -1.4782    0.0000 H   0  0  0  0  0  0  0  0  0  0  0  0
    4.1569    0.8000    0.0000 O   0  0  0  0  0  0  0  0  0  0  0  0
    5.5425    0.0000    0.0000 C   0  0  0  0  0  0  0  0  0  0  0  0
    4.9302   -1.4782    0.0000 H   0  0  0  0  0  0  0  0  0  0  0  0
    6.1548   -1.4782    0.0000 H   0  0  0  0  0  0  0  0  0  0  0  0
    6.9282    0.8000    0.0000 C   0  0  0  0  0  0  0  0  0  0  0  0
    8.3138    1.6000    0.0000 H   0  0  0  0  0  0  0  0  0  0  0  0
    8.3138    0.0000    0.0000 H   0  0  0  0  0  0  0  0  0  0  0  0
    6.9282    2.4000    0.0000 Cl  0  0  0  0  0  0  0  0  0  0  0  0
    0.0000    0.0000    0.0000 C   0  0  0  0  0  0  0  0  0  0  0  0
   -0.6123   -1.4782    0.0000 H   0  0  0  0  0  0  0  0  0  0  0  0
    0.6124   -1.4782    0.0000 H   0  0  0  0  0  0  0  0  0  0  0  0
   -1.3856    0.8000    0.0000 C   0  0  0  0  0  0  0  0  0  0  0  0
   -2.7713    1.6000    0.0000 H   0  0  0  0  0  0  0  0  0  0  0  0
   -2.7713    0.0000    0.0000 H   0  0  0  0  0  0  0  0  0  0  0  0
   -1.3856    2.4000    0.0000 Cl  0  0  0  0  0  0  0  0  0  0  0  0
  1  2  1  0  0  0  0
  2  3  1  0  0  0  0
  2  4  1  0  0  0  0
  2  5  1  0  0  0  0
  5  6  1  0  0  0  0
  6  7  1  0  0  0  0
  6  8  1  0  0  0  0
  6  9  1  0  0  0  0
  9 10  1  0  0  0  0
  9 11  1  0  0  0  0
  9 12  1  0  0  0  0
  1 13  1  0  0  0  0
 13 14  1  0  0  0  0
 13 15  1  0  0  0  0
 13 16  1  0  0  0  0
 16 17  1  0  0  0  0
 16 18  1  0  0  0  0
 16 19  1  0  0  0  0
M  END
> <ChemID>
101162

> <source_casrn>
111-91-1

> <CAS>
111-91-1

> <SMILES>
ClCCOCOCCCl

> <NAME>
BIS(2-CHLOROETHOXY)METHANE

> <preferred_name>
Bis(2-chloroethoxy)methane

> <iupac>
1-chloro-2-[(2-chloroethoxy)methoxy]ethane

> <MPID>
20227

> <dsstox_substance_id>
DTXSID4023917

> <Canonical_QSARr>
ClCCOCOCCCl

> <InChI_Code_QSARr>
InChI=1S/C5H10Cl2O2/c6-1-3-8-5-9-4-2-7/h1-5H2

> <InChI Key_QSARr>
NLXGURFLBLRZRO-UHFFFAOYSA-N

> <Salt_Solvent>
?

> <BP>
218.0

$$$$
101166
  -INDIGO-08031720192D

 29 28  0  0  0  0  0  0  0  0999 V2000
    6.9283    0.8000    0.0000 C   0  0  0  0  0  0  0  0  0  0  0  0
    6.9283    2.4000    0.0000 O   0  0  0  0  0  0  0  0  0  0  0  0
    5.5426    0.0000    0.0000 O   0  0  0  0  0  0  0  0  0  0  0  0
    4.1569    0.8000    0.0000 C   0  0  0  0  0  0  0  0  0  0  0  0
    3.5445    2.2782    0.0000 H   0  0  0  0  0  0  0  0  0  0  0  0
    4.7693    2.2782    0.0000 H   0  0  0  0  0  0  0  0  0  0  0  0
    2.7712    0.0000    0.0000 C   0  0  0  0  0  0  0  0  0  0  0  0
    3.3836   -1.4782    0.0000 H   0  0  0  0  0  0  0  0  0  0  0  0
    2.1590   -1.4782    0.0000 H   0  0  0  0  0  0  0  0  0  0  0  0
    1.3857    0.8000    0.0000 C   0  0  0  0  0  0  0  0  0  0  0  0
    0.7733    2.2782    0.0000 H   0  0  0  0  0  0  0  0  0  0  0  0
    1.9979    2.2782    0.0000 H   0  0  0  0  0  0  0  0  0  0  0  0
    0.0000    0.0000    0.0000 C   0  0  0  0  0  0  0  0  0  0  0  0
    0.6124   -1.4782    0.0000 H   0  0  0  0  0  0  0  0  0  0  0  0
   -0.6124   -1.4782    0.0000 H   0  0  0  0  0  0  0  0  0  0  0  0
   -1.3857    0.8000    0.0000 C   0  0  0  0  0  0  0  0  0  0  0  0
   -1.9978    2.2782    0.0000 H   0  0  0  0  0  0  0  0  0  0  0  0
   -0.7733    2.2782    0.0000 H   0  0  0  0  0  0  0  0  0  0  0  0
   -2.7714    0.0000    0.0000 C   0  0  0  0  0  0  0  0  0  0  0  0
   -2.1590   -1.4782    0.0000 H   0  0  0  0  0  0  0  0  0  0  0  0
   -3.3835   -1.4782    0.0000 H   0  0  0  0  0  0  0  0  0  0  0  0
   -4.1569    0.8000    0.0000 C   0  0  0  0  0  0  0  0  0  0  0  0
   -5.5426    1.6000    0.0000 H   0  0  0  0  0  0  0  0  0  0  0  0
   -5.5426    0.0000    0.0000 H   0  0  0  0  0  0  0  0  0  0  0  0
   -4.1569    2.4000    0.0000 H   0  0  0  0  0  0  0  0  0  0  0  0
    8.3138    0.0000    0.0000 C   0  0  0  0  0  0  0  0  0  0  0  0
    9.6995   -0.8000    0.0000 H   0  0  0  0  0  0  0  0  0  0  0  0
    9.6995    0.8000    0.0000 H   0  0  0  0  0  0  0  0  0  0  0  0
    8.3138   -1.6000    0.0000 H   0  0  0  0  0  0  0  0  0  0  0  0
  1  2  2  0  0  0  0
  1  3  1  0  0  0  0
  3  4  1  0  0  0  0
  4  5  1  0  0  0  0
  4  6  1  0  0  0  0
  4  7  1  0  0  0  0
  7  8  1  0  0  0  0
  7  9  1  0  0  0  0
  7 10  1  0  0  0  0
 10 11  1  0  0  0  0
 10 12  1  0  0  0  0
 10 13  1  0  0  0  0
 13 14  1  0  0  0  0
 13 15  1  0  0  0  0
 13 16  1  0  0  0  0
 16 17  1  0  0  0  0
 16 18  1  0  0  0  0
 16 19  1  0  0  0  0
 19 20  1  0  0  0  0
 19 21  1  0  0  0  0
 19 22  1  0  0  0  0
 22 23  1  0  0  0  0
 22 24  1  0  0  0  0
 22 25  1  0  0  0  0
  1 26  1  0  0  0  0
 26 27  1  0  0  0  0
 26 28  1  0  0  0  0
 26 29  1  0  0  0  0
M  END
> <ChemID>
101166

> <source_casrn>
112-06-1

> <CAS>
112-06-1

> <SMILES>
CCCCCCCOC(C)=O

> <NAME>
Acetic acid, heptyl ester

> <preferred_name>
Heptyl acetate

> <iupac>
heptyl acetate

> <MPID>
20231

> <dsstox_substance_id>
DTXSID9047124

> <Canonical_QSARr>
CCCCCCCOC(C)=O

> <InChI_Code_QSARr>
InChI=1S/C9H18O2/c1-3-4-5-6-7-8-11-9(2)10/h3-8H2,1-2H3

> <InChI Key_QSARr>
ZCZSIDMEHXZRLG-UHFFFAOYSA-N

> <Salt_Solvent>
?

> <BP>
193.0

$$$$
101170
  -INDIGO-08031720192D

 28 27  0  0  0  0  0  0  0  0999 V2000
    4.1569    0.8000    0.0000 C   0  0  0  0  0  0  0  0  0  0  0  0
    4.7692    2.2782    0.0000 H   0  0  0  0  0  0  0  0  0  0  0  0
    3.5447    2.2782    0.0000 H   0  0  0  0  0  0  0  0  0  0  0  0
    2.7713    0.0000    0.0000 C   0  0  0  0  0  0  0  0  0  0  0  0
    2.1591   -1.4782    0.0000 H   0  0  0  0  0  0  0  0  0  0  0  0
    3.3836   -1.4782    0.0000 H   0  0  0  0  0  0  0  0  0  0  0  0
    1.3858    0.8000    0.0000 O   0  0  0  0  0  0  0  0  0  0  0  0
   -0.0001    0.0000    0.0000 C   0  0  0  0  0  0  0  0  0  0  0  0
   -0.6123   -1.4782    0.0000 H   0  0  0  0  0  0  0  0  0  0  0  0
    0.6122   -1.4782    0.0000 H   0  0  0  0  0  0  0  0  0  0  0  0
   -1.3856    0.8000    0.0000 C   0  0  0  0  0  0  0  0  0  0  0  0
   -0.7734    2.2782    0.0000 H   0  0  0  0  0  0  0  0  0  0  0  0
   -1.9979    2.2782    0.0000 H   0  0  0  0  0  0  0  0  0  0  0  0
   -2.7712    0.0000    0.0000 O   0  0  0  0  0  0  0  0  0  0  0  0
   -4.1568    0.8000    0.0000 C   0  0  0  0  0  0  0  0  0  0  0  0
   -3.5446    2.2782    0.0000 H   0  0  0  0  0  0  0  0  0  0  0  0
   -4.7693    2.2782    0.0000 H   0  0  0  0  0  0  0  0  0  0  0  0
   -5.5426    0.0000    0.0000 C   0  0  0  0  0  0  0  0  0  0  0  0
   -6.9282   -0.8000    0.0000 H   0  0  0  0  0  0  0  0  0  0  0  0
   -6.9282    0.8000    0.0000 H   0  0  0  0  0  0  0  0  0  0  0  0
   -5.5426   -1.6000    0.0000 H   0  0  0  0  0  0  0  0  0  0  0  0
    5.5425    0.0000    0.0000 O   0  0  0  0  0  0  0  0  0  0  0  0
    6.9283    0.8000    0.0000 C   0  0  0  0  0  0  0  0  0  0  0  0
    6.9283    2.4000    0.0000 O   0  0  0  0  0  0  0  0  0  0  0  0
    8.3139    0.0000    0.0000 C   0  0  0  0  0  0  0  0  0  0  0  0
    9.6995   -0.8000    0.0000 H   0  0  0  0  0  0  0  0  0  0  0  0
    9.6995    0.8000    0.0000 H   0  0  0  0  0  0  0  0  0  0  0  0
    8.3139   -1.6000    0.0000 H   0  0  0  0  0  0  0  0  0  0  0  0
  1  2  1  0  0  0  0
  1  3  1  0  0  0  0
  1  4  1  0  0  0  0
  4  5  1  0  0  0  0
  4  6  1  0  0  0  0
  4  7  1  0  0  0  0
  7  8  1  0  0  0  0
  8  9  1  0  0  0  0
  8 10  1  0  0  0  0
  8 11  1  0  0  0  0
 11 12  1  0  0  0  0
 11 13  1  0  0  0  0
 11 14  1  0  0  0  0
 14 15  1  0  0  0  0
 15 16  1  0  0  0  0
 15 17  1  0  0  0  0
 15 18  1  0  0  0  0
 18 19  1  0  0  0  0
 18 20  1  0  0  0  0
 18 21  1  0  0  0  0
  1 22  1  0  0  0  0
 22 23  1  0  0  0  0
 23 24  2  0  0  0  0
 23 25  1  0  0  0  0
 25 26  1  0  0  0  0
 25 27  1  0  0  0  0
 25 28  1  0  0  0  0
M  END
> <ChemID>
101170

> <source_casrn>
112-15-2

> <CAS>
112-15-2

> <SMILES>
CCOCCOCCOC(C)=O

> <NAME>
CARBITOL ACETATE

> <preferred_name>
2-(2-Ethoxyethoxy)ethyl acetate

> <iupac>
2-(2-ethoxyethoxy)ethyl acetate

> <MPID>
20235

> <dsstox_substance_id>
DTXSID6026905

> <Canonical_QSARr>
CCOCCOCCOC(C)=O

> <InChI_Code_QSARr>
InChI=1S/C8H16O4/c1-3-10-4-5-11-6-7-12-8(2)9/h3-7H2,1-2H3

> <InChI Key_QSARr>
FPZWZCWUIYYYBU-UHFFFAOYSA-N

> <Salt_Solvent>
?

> <BP>
218.5

$$$$
101174
  -INDIGO-08031720192D

 26 25  0  0  0  0  0  0  0  0999 V2000
   -1.3855    0.8000    0.0000 C   0  0  0  0  0  0  0  0  0  0  0  0
   -0.7734    2.2782    0.0000 H   0  0  0  0  0  0  0  0  0  0  0  0
   -1.9979    2.2782    0.0000 H   0  0  0  0  0  0  0  0  0  0  0  0
   -2.7713    0.0000    0.0000 C   0  0  0  0  0  0  0  0  0  0  0  0
   -3.3836   -1.4782    0.0000 H   0  0  0  0  0  0  0  0  0  0  0  0
   -2.1590   -1.4782    0.0000 H   0  0  0  0  0  0  0  0  0  0  0  0
   -4.1568    0.8000    0.0000 C   0  0  0  0  0  0  0  0  0  0  0  0
   -3.5447    2.2782    0.0000 H   0  0  0  0  0  0  0  0  0  0  0  0
   -4.7691    2.2782    0.0000 H   0  0  0  0  0  0  0  0  0  0  0  0
   -5.5426    0.0000    0.0000 O   0  0  0  0  0  0  0  0  0  0  0  0
   -6.9281    0.8000    0.0000 C   0  0  0  0  0  0  0  0  0  0  0  0
   -8.3138    0.0000    0.0000 H   0  0  0  0  0  0  0  0  0  0  0  0
   -6.9281    2.4000    0.0000 O   0  0  0  0  0  0  0  0  0  0  0  0
    0.0000    0.0000    0.0000 C   0  0  0  0  0  0  0  0  0  0  0  0
   -0.6123   -1.4782    0.0000 H   0  0  0  0  0  0  0  0  0  0  0  0
    0.6123   -1.4782    0.0000 H   0  0  0  0  0  0  0  0  0  0  0  0
    1.3857    0.8000    0.0000 C   0  0  0  0  0  0  0  0  0  0  0  0
    1.9979    2.2782    0.0000 H   0  0  0  0  0  0  0  0  0  0  0  0
    0.7734    2.2782    0.0000 H   0  0  0  0  0  0  0  0  0  0  0  0
    2.7713    0.0000    0.0000 C   0  0  0  0  0  0  0  0  0  0  0  0
    2.1590   -1.4782    0.0000 H   0  0  0  0  0  0  0  0  0  0  0  0
    3.3836   -1.4782    0.0000 H   0  0  0  0  0  0  0  0  0  0  0  0
    4.1570    0.8000    0.0000 C   0  0  0  0  0  0  0  0  0  0  0  0
    5.5426    1.6000    0.0000 H   0  0  0  0  0  0  0  0  0  0  0  0
    5.5426    0.0000    0.0000 H   0  0  0  0  0  0  0  0  0  0  0  0
    4.1570    2.4000    0.0000 H   0  0  0  0  0  0  0  0  0  0  0  0
  1  2  1  0  0  0  0
  1  3  1  0  0  0  0
  1  4  1  0  0  0  0
  4  5  1  0  0  0  0
  4  6  1  0  0  0  0
  4  7  1  0  0  0  0
  7  8  1  0  0  0  0
  7  9  1  0  0  0  0
  7 10  1  0  0  0  0
 10 11  1  0  0  0  0
 11 12  1  0  0  0  0
 11 13  2  0  0  0  0
  1 14  1  0  0  0  0
 14 15  1  0  0  0  0
 14 16  1  0  0  0  0
 14 17  1  0  0  0  0
 17 18  1  0  0  0  0
 17 19  1  0  0  0  0
 17 20  1  0  0  0  0
 20 21  1  0  0  0  0
 20 22  1  0  0  0  0
 20 23  1  0  0  0  0
 23 24  1  0  0  0  0
 23 25  1  0  0  0  0
 23 26  1  0  0  0  0
M  END
> <ChemID>
101174

> <source_casrn>
112-23-2

> <CAS>
112-23-2

> <SMILES>
CCCCCCCOC=O

> <NAME>
Formic acid, heptyl ester

> <preferred_name>
Formic acid, heptyl ester

> <iupac>
Heptyl formate

> <MPID>
20239

> <dsstox_substance_id>
DTXSID9059416

> <Canonical_QSARr>
CCCCCCCOC=O

> <InChI_Code_QSARr>
InChI=1S/C8H16O2/c1-2-3-4-5-6-7-10-8-9/h8H,2-7H2,1H3

> <InChI Key_QSARr>
XEAMDSXSXYAICO-UHFFFAOYSA-N

> <Salt_Solvent>
?

> <BP>
178.1

$$$$
101178
  -INDIGO-08031720192D

 24 23  0  0  0  0  0  0  0  0999 V2000
    5.5425    0.0000    0.0000 O   0  0  0  0  0  0  0  0  0  0  0  0
    6.9282   -0.8000    0.0000 H   0  0  0  0  0  0  0  0  0  0  0  0
    4.1570   -0.8000    0.0000 C   0  0  0  0  0  0  0  0  0  0  0  0
    3.5446   -2.2782    0.0000 H   0  0  0  0  0  0  0  0  0  0  0  0
    4.7692   -2.2782    0.0000 H   0  0  0  0  0  0  0  0  0  0  0  0
    2.7713    0.0000    0.0000 C   0  0  0  0  0  0  0  0  0  0  0  0
    3.3835    1.4782    0.0000 H   0  0  0  0  0  0  0  0  0  0  0  0
    2.1589    1.4782    0.0000 H   0  0  0  0  0  0  0  0  0  0  0  0
    1.3856   -0.8000    0.0000 O   0  0  0  0  0  0  0  0  0  0  0  0
   -0.0001    0.0000    0.0000 C   0  0  0  0  0  0  0  0  0  0  0  0
    0.6123    1.4782    0.0000 H   0  0  0  0  0  0  0  0  0  0  0  0
   -0.6122    1.4782    0.0000 H   0  0  0  0  0  0  0  0  0  0  0  0
   -1.3856   -0.8000    0.0000 C   0  0  0  0  0  0  0  0  0  0  0  0
   -1.9979   -2.2782    0.0000 H   0  0  0  0  0  0  0  0  0  0  0  0
   -0.7734   -2.2782    0.0000 H   0  0  0  0  0  0  0  0  0  0  0  0
   -2.7713    0.0000    0.0000 O   0  0  0  0  0  0  0  0  0  0  0  0
   -4.1570   -0.8000    0.0000 C   0  0  0  0  0  0  0  0  0  0  0  0
   -4.7691   -2.2782    0.0000 H   0  0  0  0  0  0  0  0  0  0  0  0
   -3.5446   -2.2782    0.0000 H   0  0  0  0  0  0  0  0  0  0  0  0
   -5.5427    0.0000    0.0000 C   0  0  0  0  0  0  0  0  0  0  0  0
   -4.9303    1.4782    0.0000 H   0  0  0  0  0  0  0  0  0  0  0  0
   -6.1548    1.4782    0.0000 H   0  0  0  0  0  0  0  0  0  0  0  0
   -6.9281   -0.8000    0.0000 O   0  0  0  0  0  0  0  0  0  0  0  0
   -8.3138    0.0000    0.0000 H   0  0  0  0  0  0  0  0  0  0  0  0
  1  2  1  0  0  0  0
  1  3  1  0  0  0  0
  3  4  1  0  0  0  0
  3  5  1  0  0  0  0
  3  6  1  0  0  0  0
  6  7  1  0  0  0  0
  6  8  1  0  0  0  0
  6  9  1  0  0  0  0
  9 10  1  0  0  0  0
 10 11  1  0  0  0  0
 10 12  1  0  0  0  0
 10 13  1  0  0  0  0
 13 14  1  0  0  0  0
 13 15  1  0  0  0  0
 13 16  1  0  0  0  0
 16 17  1  0  0  0  0
 17 18  1  0  0  0  0
 17 19  1  0  0  0  0
 17 20  1  0  0  0  0
 20 21  1  0  0  0  0
 20 22  1  0  0  0  0
 20 23  1  0  0  0  0
 23 24  1  0  0  0  0
M  END
> <ChemID>
101178

> <source_casrn>
112-27-6

> <CAS>
112-27-6

> <SMILES>
OCCOCCOCCO

> <NAME>
TRIETHYLENE GLYCOL

> <preferred_name>
Triethylene glycol

> <iupac>
2,2'-[ethane-1,2-diylbis(oxy)]diethanol

> <MPID>
20243

> <dsstox_substance_id>
DTXSID4021393

> <Canonical_QSARr>
OCCOCCOCCO

> <InChI_Code_QSARr>
InChI=1S/C6H14O4/c7-1-3-9-5-6-10-4-2-8/h7-8H,1-6H2

> <InChI Key_QSARr>
ZIBGPFATKBEMQZ-UHFFFAOYSA-N

> <Salt_Solvent>
?

> <BP>
285.0

$$$$
101182
  -INDIGO-08031720192D

 29 28  0  0  0  0  0  0  0  0999 V2000
    1.3856    0.8000    0.0000 C   0  0  0  0  0  0  0  0  0  0  0  0
    1.9979    2.2782    0.0000 H   0  0  0  0  0  0  0  0  0  0  0  0
    0.7734    2.2782    0.0000 H   0  0  0  0  0  0  0  0  0  0  0  0
    0.0001    0.0000    0.0000 C   0  0  0  0  0  0  0  0  0  0  0  0
   -0.6123   -1.4782    0.0000 H   0  0  0  0  0  0  0  0  0  0  0  0
    0.6122   -1.4782    0.0000 H   0  0  0  0  0  0  0  0  0  0  0  0
   -1.3856    0.8000    0.0000 C   0  0  0  0  0  0  0  0  0  0  0  0
   -0.7732    2.2782    0.0000 H   0  0  0  0  0  0  0  0  0  0  0  0
   -1.9980    2.2782    0.0000 H   0  0  0  0  0  0  0  0  0  0  0  0
   -2.7713    0.0000    0.0000 C   0  0  0  0  0  0  0  0  0  0  0  0
   -3.3835   -1.4782    0.0000 H   0  0  0  0  0  0  0  0  0  0  0  0
   -2.1589   -1.4782    0.0000 H   0  0  0  0  0  0  0  0  0  0  0  0
   -4.1570    0.8000    0.0000 C   0  0  0  0  0  0  0  0  0  0  0  0
   -3.5446    2.2782    0.0000 H   0  0  0  0  0  0  0  0  0  0  0  0
   -4.7692    2.2782    0.0000 H   0  0  0  0  0  0  0  0  0  0  0  0
   -5.5425    0.0000    0.0000 C   0  0  0  0  0  0  0  0  0  0  0  0
   -6.9282   -0.8000    0.0000 H   0  0  0  0  0  0  0  0  0  0  0  0
   -6.9282    0.8000    0.0000 H   0  0  0  0  0  0  0  0  0  0  0  0
   -5.5425   -1.6000    0.0000 H   0  0  0  0  0  0  0  0  0  0  0  0
    2.7713    0.0000    0.0000 C   0  0  0  0  0  0  0  0  0  0  0  0
    2.1589   -1.4782    0.0000 H   0  0  0  0  0  0  0  0  0  0  0  0
    3.3836   -1.4782    0.0000 H   0  0  0  0  0  0  0  0  0  0  0  0
    4.1570    0.8000    0.0000 C   0  0  0  0  0  0  0  0  0  0  0  0
    4.7691    2.2782    0.0000 H   0  0  0  0  0  0  0  0  0  0  0  0
    3.5446    2.2782    0.0000 H   0  0  0  0  0  0  0  0  0  0  0  0
    5.5427    0.0000    0.0000 O   0  0  0  0  0  0  0  0  0  0  0  0
    6.9281    0.8000    0.0000 C   0  0  0  0  0  0  0  0  0  0  0  0
    8.3138    0.0000    0.0000 H   0  0  0  0  0  0  0  0  0  0  0  0
    6.9281    2.4000    0.0000 O   0  0  0  0  0  0  0  0  0  0  0  0
  1  2  1  0  0  0  0
  1  3  1  0  0  0  0
  1  4  1  0  0  0  0
  4  5  1  0  0  0  0
  4  6  1  0  0  0  0
  4  7  1  0  0  0  0
  7  8  1  0  0  0  0
  7  9  1  0  0  0  0
  7 10  1  0  0  0  0
 10 11  1  0  0  0  0
 10 12  1  0  0  0  0
 10 13  1  0  0  0  0
 13 14  1  0  0  0  0
 13 15  1  0  0  0  0
 13 16  1  0  0  0  0
 16 17  1  0  0  0  0
 16 18  1  0  0  0  0
 16 19  1  0  0  0  0
  1 20  1  0  0  0  0
 20 21  1  0  0  0  0
 20 22  1  0  0  0  0
 20 23  1  0  0  0  0
 23 24  1  0  0  0  0
 23 25  1  0  0  0  0
 23 26  1  0  0  0  0
 26 27  1  0  0  0  0
 27 28  1  0  0  0  0
 27 29  2  0  0  0  0
M  END
> <ChemID>
101182

> <source_casrn>
112-32-3

> <CAS>
112-32-3

> <SMILES>
CCCCCCCCOC=O

> <NAME>
Formic acid, octyl ester

> <preferred_name>
Formic acid, octyl ester

> <iupac>
Octyl formate

> <MPID>
20247

> <dsstox_substance_id>
DTXSID4059417

> <Canonical_QSARr>
CCCCCCCCOC=O

> <InChI_Code_QSARr>
InChI=1S/C9H18O2/c1-2-3-4-5-6-7-8-11-9-10/h9H,2-8H2,1H3

> <InChI Key_QSARr>
AVBRYQRTMPHARE-UHFFFAOYSA-N

> <Salt_Solvent>
?

> <BP>
198.8

$$$$
101186
  -INDIGO-08031720192D

 35 34  0  0  0  0  0  0  0  0999 V2000
    6.9283    2.4000    0.0000 O   0  0  0  0  0  0  0  0  0  0  0  0
    6.9283    0.8000    0.0000 C   0  0  0  0  0  0  0  0  0  0  0  0
    8.3139    0.0000    0.0000 O   0  0  0  0  0  0  0  0  0  0  0  0
    9.6995    0.8000    0.0000 H   0  0  0  0  0  0  0  0  0  0  0  0
    5.5427    0.0000    0.0000 C   0  0  0  0  0  0  0  0  0  0  0  0
    4.9303   -1.4782    0.0000 H   0  0  0  0  0  0  0  0  0  0  0  0
    6.1548   -1.4782    0.0000 H   0  0  0  0  0  0  0  0  0  0  0  0
    4.1568    0.8000    0.0000 C   0  0  0  0  0  0  0  0  0  0  0  0
    4.7692    2.2782    0.0000 H   0  0  0  0  0  0  0  0  0  0  0  0
    3.5447    2.2782    0.0000 H   0  0  0  0  0  0  0  0  0  0  0  0
    2.7712    0.0000    0.0000 C   0  0  0  0  0  0  0  0  0  0  0  0
    2.1591   -1.4782    0.0000 H   0  0  0  0  0  0  0  0  0  0  0  0
    3.3836   -1.4782    0.0000 H   0  0  0  0  0  0  0  0  0  0  0  0
    1.3856    0.8000    0.0000 C   0  0  0  0  0  0  0  0  0  0  0  0
    1.9980    2.2782    0.0000 H   0  0  0  0  0  0  0  0  0  0  0  0
    0.7732    2.2782    0.0000 H   0  0  0  0  0  0  0  0  0  0  0  0
    0.0000    0.0000    0.0000 C   0  0  0  0  0  0  0  0  0  0  0  0
   -0.6124   -1.4782    0.0000 H   0  0  0  0  0  0  0  0  0  0  0  0
    0.6124   -1.4782    0.0000 H   0  0  0  0  0  0  0  0  0  0  0  0
   -1.3856    0.8000    0.0000 C   0  0  0  0  0  0  0  0  0  0  0  0
   -0.7735    2.2782    0.0000 H   0  0  0  0  0  0  0  0  0  0  0  0
   -1.9980    2.2782    0.0000 H   0  0  0  0  0  0  0  0  0  0  0  0
   -2.7712    0.0000    0.0000 C   0  0  0  0  0  0  0  0  0  0  0  0
   -3.3836   -1.4782    0.0000 H   0  0  0  0  0  0  0  0  0  0  0  0
   -2.1590   -1.4782    0.0000 H   0  0  0  0  0  0  0  0  0  0  0  0
   -4.1570    0.8000    0.0000 C   0  0  0  0  0  0  0  0  0  0  0  0
   -3.5446    2.2782    0.0000 H   0  0  0  0  0  0  0  0  0  0  0  0
   -4.7692    2.2782    0.0000 H   0  0  0  0  0  0  0  0  0  0  0  0
   -5.5426    0.0000    0.0000 C   0  0  0  0  0  0  0  0  0  0  0  0
   -6.1548   -1.4782    0.0000 H   0  0  0  0  0  0  0  0  0  0  0  0
   -4.9302   -1.4782    0.0000 H   0  0  0  0  0  0  0  0  0  0  0  0
   -6.9282    0.8000    0.0000 C   0  0  0  0  0  0  0  0  0  0  0  0
   -8.3138    1.6000    0.0000 H   0  0  0  0  0  0  0  0  0  0  0  0
   -8.3138    0.0000    0.0000 H   0  0  0  0  0  0  0  0  0  0  0  0
   -6.9282    2.4000    0.0000 H   0  0  0  0  0  0  0  0  0  0  0  0
  1  2  2  0  0  0  0
  2  3  1  0  0  0  0
  3  4  1  0  0  0  0
  2  5  1  0  0  0  0
  5  6  1  0  0  0  0
  5  7  1  0  0  0  0
  5  8  1  0  0  0  0
  8  9  1  0  0  0  0
  8 10  1  0  0  0  0
  8 11  1  0  0  0  0
 11 12  1  0  0  0  0
 11 13  1  0  0  0  0
 11 14  1  0  0  0  0
 14 15  1  0  0  0  0
 14 16  1  0  0  0  0
 14 17  1  0  0  0  0
 17 18  1  0  0  0  0
 17 19  1  0  0  0  0
 17 20  1  0  0  0  0
 20 21  1  0  0  0  0
 20 22  1  0  0  0  0
 20 23  1  0  0  0  0
 23 24  1  0  0  0  0
 23 25  1  0  0  0  0
 23 26  1  0  0  0  0
 26 27  1  0  0  0  0
 26 28  1  0  0  0  0
 26 29  1  0  0  0  0
 29 30  1  0  0  0  0
 29 31  1  0  0  0  0
 29 32  1  0  0  0  0
 32 33  1  0  0  0  0
 32 34  1  0  0  0  0
 32 35  1  0  0  0  0
M  END
> <ChemID>
101186

> <source_casrn>
112-37-8

> <CAS>
112-37-8

> <SMILES>
CCCCCCCCCCC(O)=O

> <NAME>
UNDECANOIC ACID

> <preferred_name>
Undecanoic acid

> <iupac>
undecanoic acid

> <MPID>
20251

> <dsstox_substance_id>
DTXSID8021690

> <Canonical_QSARr>
CCCCCCCCCCC(O)=O

> <InChI_Code_QSARr>
InChI=1S/C11H22O2/c1-2-3-4-5-6-7-8-9-10-11(12)13/h2-10H2,1H3,(H,12,13)

> <InChI Key_QSARr>
ZDPHROOEEOARMN-UHFFFAOYSA-N

> <Salt_Solvent>
?

> <BP>
280.0

$$$$
101190
  -INDIGO-08031720192D

 36 35  0  0  0  0  0  0  0  0999 V2000
   -6.9283    0.8000    0.0000 C   0  0  0  0  0  0  0  0  0  0  0  0
   -6.3159    2.2782    0.0000 H   0  0  0  0  0  0  0  0  0  0  0  0
   -7.5404    2.2782    0.0000 H   0  0  0  0  0  0  0  0  0  0  0  0
   -5.5427    0.0000    0.0000 C   0  0  0  0  0  0  0  0  0  0  0  0
   -6.1548   -1.4782    0.0000 H   0  0  0  0  0  0  0  0  0  0  0  0
   -4.9303   -1.4782    0.0000 H   0  0  0  0  0  0  0  0  0  0  0  0
   -4.1568    0.8000    0.0000 C   0  0  0  0  0  0  0  0  0  0  0  0
   -3.5447    2.2782    0.0000 H   0  0  0  0  0  0  0  0  0  0  0  0
   -4.7692    2.2782    0.0000 H   0  0  0  0  0  0  0  0  0  0  0  0
   -2.7712    0.0000    0.0000 C   0  0  0  0  0  0  0  0  0  0  0  0
   -3.3836   -1.4782    0.0000 H   0  0  0  0  0  0  0  0  0  0  0  0
   -2.1591   -1.4782    0.0000 H   0  0  0  0  0  0  0  0  0  0  0  0
   -1.3856    0.8000    0.0000 C   0  0  0  0  0  0  0  0  0  0  0  0
   -0.7732    2.2782    0.0000 H   0  0  0  0  0  0  0  0  0  0  0  0
   -1.9980    2.2782    0.0000 H   0  0  0  0  0  0  0  0  0  0  0  0
   -0.0000    0.0000    0.0000 C   0  0  0  0  0  0  0  0  0  0  0  0
   -0.6124   -1.4782    0.0000 H   0  0  0  0  0  0  0  0  0  0  0  0
    0.6124   -1.4782    0.0000 H   0  0  0  0  0  0  0  0  0  0  0  0
    1.3856    0.8000    0.0000 C   0  0  0  0  0  0  0  0  0  0  0  0
    1.9980    2.2782    0.0000 H   0  0  0  0  0  0  0  0  0  0  0  0
    0.7735    2.2782    0.0000 H   0  0  0  0  0  0  0  0  0  0  0  0
    2.7712    0.0000    0.0000 C   0  0  0  0  0  0  0  0  0  0  0  0
    2.1590   -1.4782    0.0000 H   0  0  0  0  0  0  0  0  0  0  0  0
    3.3836   -1.4782    0.0000 H   0  0  0  0  0  0  0  0  0  0  0  0
    4.1570    0.8000    0.0000 C   0  0  0  0  0  0  0  0  0  0  0  0
    4.7692    2.2782    0.0000 H   0  0  0  0  0  0  0  0  0  0  0  0
    3.5446    2.2782    0.0000 H   0  0  0  0  0  0  0  0  0  0  0  0
    5.5426    0.0000    0.0000 C   0  0  0  0  0  0  0  0  0  0  0  0
    4.9302   -1.4782    0.0000 H   0  0  0  0  0  0  0  0  0  0  0  0
    6.1548   -1.4782    0.0000 H   0  0  0  0  0  0  0  0  0  0  0  0
    6.9282    0.8000    0.0000 C   0  0  0  0  0  0  0  0  0  0  0  0
    8.3138    1.6000    0.0000 H   0  0  0  0  0  0  0  0  0  0  0  0
    8.3138    0.0000    0.0000 H   0  0  0  0  0  0  0  0  0  0  0  0
    6.9282    2.4000    0.0000 H   0  0  0  0  0  0  0  0  0  0  0  0
   -8.3139    0.0000    0.0000 O   0  0  0  0  0  0  0  0  0  0  0  0
   -9.6995    0.8000    0.0000 H   0  0  0  0  0  0  0  0  0  0  0  0
  1  2  1  0  0  0  0
  1  3  1  0  0  0  0
  1  4  1  0  0  0  0
  4  5  1  0  0  0  0
  4  6  1  0  0  0  0
  4  7  1  0  0  0  0
  7  8  1  0  0  0  0
  7  9  1  0  0  0  0
  7 10  1  0  0  0  0
 10 11  1  0  0  0  0
 10 12  1  0  0  0  0
 10 13  1  0  0  0  0
 13 14  1  0  0  0  0
 13 15  1  0  0  0  0
 13 16  1  0  0  0  0
 16 17  1  0  0  0  0
 16 18  1  0  0  0  0
 16 19  1  0  0  0  0
 19 20  1  0  0  0  0
 19 21  1  0  0  0  0
 19 22  1  0  0  0  0
 22 23  1  0  0  0  0
 22 24  1  0  0  0  0
 22 25  1  0  0  0  0
 25 26  1  0  0  0  0
 25 27  1  0  0  0  0
 25 28  1  0  0  0  0
 28 29  1  0  0  0  0
 28 30  1  0  0  0  0
 28 31  1  0  0  0  0
 31 32  1  0  0  0  0
 31 33  1  0  0  0  0
 31 34  1  0  0  0  0
  1 35  1  0  0  0  0
 35 36  1  0  0  0  0
M  END
> <ChemID>
101190

> <source_casrn>
112-42-5

> <CAS>
112-42-5

> <SMILES>
CCCCCCCCCCCO

> <NAME>
1-UNDECANOL

> <preferred_name>
1-Undecanol

> <iupac>
undecan-1-ol

> <MPID>
20255

> <dsstox_substance_id>
DTXSID0026915

> <Canonical_QSARr>
CCCCCCCCCCCO

> <InChI_Code_QSARr>
InChI=1S/C11H24O/c1-2-3-4-5-6-7-8-9-10-11-12/h12H,2-11H2,1H3

> <InChI Key_QSARr>
KJIOQYGWTQBHNH-UHFFFAOYSA-N

> <Salt_Solvent>
?

> <BP>
243.0

$$$$
101194
  -INDIGO-08031720192D

 30 29  0  0  0  0  0  0  0  0999 V2000
   -0.0000    0.0000    0.0000 C   0  0  0  0  0  0  0  0  0  0  0  0
    0.6124    1.4782    0.0000 H   0  0  0  0  0  0  0  0  0  0  0  0
   -0.6124    1.4782    0.0000 H   0  0  0  0  0  0  0  0  0  0  0  0
    1.3856   -0.8000    0.0000 O   0  0  0  0  0  0  0  0  0  0  0  0
    2.7712    0.0000    0.0000 C   0  0  0  0  0  0  0  0  0  0  0  0
    3.3836    1.4782    0.0000 H   0  0  0  0  0  0  0  0  0  0  0  0
    2.1590    1.4782    0.0000 H   0  0  0  0  0  0  0  0  0  0  0  0
    4.1570   -0.8000    0.0000 C   0  0  0  0  0  0  0  0  0  0  0  0
    3.5446   -2.2782    0.0000 H   0  0  0  0  0  0  0  0  0  0  0  0
    4.7692   -2.2782    0.0000 H   0  0  0  0  0  0  0  0  0  0  0  0
    5.5426    0.0000    0.0000 O   0  0  0  0  0  0  0  0  0  0  0  0
    6.9282   -0.8000    0.0000 C   0  0  0  0  0  0  0  0  0  0  0  0
    8.3138   -1.6000    0.0000 H   0  0  0  0  0  0  0  0  0  0  0  0
    8.3138    0.0000    0.0000 H   0  0  0  0  0  0  0  0  0  0  0  0
    6.9282   -2.4000    0.0000 H   0  0  0  0  0  0  0  0  0  0  0  0
   -1.3856   -0.8000    0.0000 C   0  0  0  0  0  0  0  0  0  0  0  0
   -1.9980   -2.2782    0.0000 H   0  0  0  0  0  0  0  0  0  0  0  0
   -0.7732   -2.2782    0.0000 H   0  0  0  0  0  0  0  0  0  0  0  0
   -2.7712    0.0000    0.0000 O   0  0  0  0  0  0  0  0  0  0  0  0
   -4.1568   -0.8000    0.0000 C   0  0  0  0  0  0  0  0  0  0  0  0
   -4.7692   -2.2782    0.0000 H   0  0  0  0  0  0  0  0  0  0  0  0
   -3.5447   -2.2782    0.0000 H   0  0  0  0  0  0  0  0  0  0  0  0
   -5.5427    0.0000    0.0000 C   0  0  0  0  0  0  0  0  0  0  0  0
   -4.9303    1.4782    0.0000 H   0  0  0  0  0  0  0  0  0  0  0  0
   -6.1548    1.4782    0.0000 H   0  0  0  0  0  0  0  0  0  0  0  0
   -6.9283   -0.8000    0.0000 O   0  0  0  0  0  0  0  0  0  0  0  0
   -8.3139    0.0000    0.0000 C   0  0  0  0  0  0  0  0  0  0  0  0
   -9.6995    0.8000    0.0000 H   0  0  0  0  0  0  0  0  0  0  0  0
   -9.6995   -0.8000    0.0000 H   0  0  0  0  0  0  0  0  0  0  0  0
   -8.3139    1.6000    0.0000 H   0  0  0  0  0  0  0  0  0  0  0  0
  1  2  1  0  0  0  0
  1  3  1  0  0  0  0
  1  4  1  0  0  0  0
  4  5  1  0  0  0  0
  5  6  1  0  0  0  0
  5  7  1  0  0  0  0
  5  8  1  0  0  0  0
  8  9  1  0  0  0  0
  8 10  1  0  0  0  0
  8 11  1  0  0  0  0
 11 12  1  0  0  0  0
 12 13  1  0  0  0  0
 12 14  1  0  0  0  0
 12 15  1  0  0  0  0
  1 16  1  0  0  0  0
 16 17  1  0  0  0  0
 16 18  1  0  0  0  0
 16 19  1  0  0  0  0
 19 20  1  0  0  0  0
 20 21  1  0  0  0  0
 20 22  1  0  0  0  0
 20 23  1  0  0  0  0
 23 24  1  0  0  0  0
 23 25  1  0  0  0  0
 23 26  1  0  0  0  0
 26 27  1  0  0  0  0
 27 28  1  0  0  0  0
 27 29  1  0  0  0  0
 27 30  1  0  0  0  0
M  END
> <ChemID>
101194

> <source_casrn>
112-49-2

> <CAS>
112-49-2

> <SMILES>
COCCOCCOCCOC

> <NAME>
2,5,8,11-TETRAOXADODECANE

> <preferred_name>
Triethylene glycol dimethyl ether

> <iupac>
2,5,8,11-tetraoxadodecane

> <MPID>
20259

> <dsstox_substance_id>
DTXSID8026224

> <Canonical_QSARr>
COCCOCCOCCOC

> <InChI_Code_QSARr>
InChI=1S/C8H18O4/c1-9-3-5-11-7-8-12-6-4-10-2/h3-8H2,1-2H3

> <InChI Key_QSARr>
YFNKIDBQEZZDLK-UHFFFAOYSA-N

> <Salt_Solvent>
?

> <BP>
216.0

$$$$
101198
  -INDIGO-08031720192D

 39 38  0  0  0  0  0  0  0  0999 V2000
    0.0001   -0.0000    0.0000 C   0  0  0  0  0  0  0  0  0  0  0  0
    0.6123   -1.4782    0.0000 H   0  0  0  0  0  0  0  0  0  0  0  0
   -0.6123   -1.4782    0.0000 H   0  0  0  0  0  0  0  0  0  0  0  0
    1.3858    0.8000    0.0000 C   0  0  0  0  0  0  0  0  0  0  0  0
    0.7733    2.2782    0.0000 H   0  0  0  0  0  0  0  0  0  0  0  0
    1.9979    2.2782    0.0000 H   0  0  0  0  0  0  0  0  0  0  0  0
    2.7714   -0.0000    0.0000 C   0  0  0  0  0  0  0  0  0  0  0  0
    3.3835   -1.4782    0.0000 H   0  0  0  0  0  0  0  0  0  0  0  0
    2.1589   -1.4782    0.0000 H   0  0  0  0  0  0  0  0  0  0  0  0
    4.1570    0.8000    0.0000 C   0  0  0  0  0  0  0  0  0  0  0  0
    3.5446    2.2782    0.0000 H   0  0  0  0  0  0  0  0  0  0  0  0
    4.7692    2.2782    0.0000 H   0  0  0  0  0  0  0  0  0  0  0  0
    5.5426   -0.0000    0.0000 C   0  0  0  0  0  0  0  0  0  0  0  0
    6.1548   -1.4782    0.0000 H   0  0  0  0  0  0  0  0  0  0  0  0
    4.9302   -1.4782    0.0000 H   0  0  0  0  0  0  0  0  0  0  0  0
    6.9282    0.8000    0.0000 C   0  0  0  0  0  0  0  0  0  0  0  0
    6.3158    2.2782    0.0000 H   0  0  0  0  0  0  0  0  0  0  0  0
    7.5404    2.2782    0.0000 H   0  0  0  0  0  0  0  0  0  0  0  0
    8.3139   -0.0000    0.0000 C   0  0  0  0  0  0  0  0  0  0  0  0
    9.6995   -0.8000    0.0000 H   0  0  0  0  0  0  0  0  0  0  0  0
    9.6995    0.8000    0.0000 H   0  0  0  0  0  0  0  0  0  0  0  0
    8.3139   -1.6000    0.0000 H   0  0  0  0  0  0  0  0  0  0  0  0
   -1.3858    0.8000    0.0000 C   0  0  0  0  0  0  0  0  0  0  0  0
   -1.9979    2.2782    0.0000 H   0  0  0  0  0  0  0  0  0  0  0  0
   -0.7733    2.2782    0.0000 H   0  0  0  0  0  0  0  0  0  0  0  0
   -2.7714   -0.0000    0.0000 C   0  0  0  0  0  0  0  0  0  0  0  0
   -2.1589   -1.4782    0.0000 H   0  0  0  0  0  0  0  0  0  0  0  0
   -3.3835   -1.4782    0.0000 H   0  0  0  0  0  0  0  0  0  0  0  0
   -4.1570    0.8000    0.0000 C   0  0  0  0  0  0  0  0  0  0  0  0
   -4.7692    2.2782    0.0000 H   0  0  0  0  0  0  0  0  0  0  0  0
   -3.5446    2.2782    0.0000 H   0  0  0  0  0  0  0  0  0  0  0  0
   -5.5426   -0.0000    0.0000 C   0  0  0  0  0  0  0  0  0  0  0  0
   -4.9302   -1.4782    0.0000 H   0  0  0  0  0  0  0  0  0  0  0  0
   -6.1548   -1.4782    0.0000 H   0  0  0  0  0  0  0  0  0  0  0  0
   -6.9282    0.8000    0.0000 C   0  0  0  0  0  0  0  0  0  0  0  0
   -7.5404    2.2782    0.0000 H   0  0  0  0  0  0  0  0  0  0  0  0
   -6.3158    2.2782    0.0000 H   0  0  0  0  0  0  0  0  0  0  0  0
   -8.3139   -0.0000    0.0000 S   0  0  0  0  0  0  0  0  0  0  0  0
   -9.6995    0.8000    0.0000 H   0  0  0  0  0  0  0  0  0  0  0  0
  1  2  1  0  0  0  0
  1  3  1  0  0  0  0
  1  4  1  0  0  0  0
  4  5  1  0  0  0  0
  4  6  1  0  0  0  0
  4  7  1  0  0  0  0
  7  8  1  0  0  0  0
  7  9  1  0  0  0  0
  7 10  1  0  0  0  0
 10 11  1  0  0  0  0
 10 12  1  0  0  0  0
 10 13  1  0  0  0  0
 13 14  1  0  0  0  0
 13 15  1  0  0  0  0
 13 16  1  0  0  0  0
 16 17  1  0  0  0  0
 16 18  1  0  0  0  0
 16 19  1  0  0  0  0
 19 20  1  0  0  0  0
 19 21  1  0  0  0  0
 19 22  1  0  0  0  0
  1 23  1  0  0  0  0
 23 24  1  0  0  0  0
 23 25  1  0  0  0  0
 23 26  1  0  0  0  0
 26 27  1  0  0  0  0
 26 28  1  0  0  0  0
 26 29  1  0  0  0  0
 29 30  1  0  0  0  0
 29 31  1  0  0  0  0
 29 32  1  0  0  0  0
 32 33  1  0  0  0  0
 32 34  1  0  0  0  0
 32 35  1  0  0  0  0
 35 36  1  0  0  0  0
 35 37  1  0  0  0  0
 35 38  1  0  0  0  0
 38 39  1  0  0  0  0
M  END
> <ChemID>
101198

> <source_casrn>
112-55-0

> <CAS>
112-55-0

> <SMILES>
CCCCCCCCCCCCS

> <NAME>
DODECYL MERCAPTAN

> <preferred_name>
1-Dodecanethiol

> <iupac>
dodecane-1-thiol

> <MPID>
20263

> <dsstox_substance_id>
DTXSID6025220

> <Canonical_QSARr>
CCCCCCCCCCCCS

> <InChI_Code_QSARr>
InChI=1S/C12H26S/c1-2-3-4-5-6-7-8-9-10-11-12-13/h13H,2-12H2,1H3

> <InChI Key_QSARr>
WNAHIZMDSQCWRP-UHFFFAOYSA-N

> <Salt_Solvent>
?

> <BP>
274.0

$$$$
101202
  -INDIGO-08031720192D

 31 30  0  0  0  0  0  0  0  0999 V2000
    5.5426    0.0000    0.0000 C   0  0  0  0  0  0  0  0  0  0  0  0
    6.1548   -1.4782    0.0000 H   0  0  0  0  0  0  0  0  0  0  0  0
    4.9302   -1.4782    0.0000 H   0  0  0  0  0  0  0  0  0  0  0  0
    4.1570    0.8000    0.0000 C   0  0  0  0  0  0  0  0  0  0  0  0
    3.5445    2.2782    0.0000 H   0  0  0  0  0  0  0  0  0  0  0  0
    4.7691    2.2782    0.0000 H   0  0  0  0  0  0  0  0  0  0  0  0
    2.7714    0.0000    0.0000 O   0  0  0  0  0  0  0  0  0  0  0  0
    1.3857    0.8000    0.0000 C   0  0  0  0  0  0  0  0  0  0  0  0
    0.7733    2.2782    0.0000 H   0  0  0  0  0  0  0  0  0  0  0  0
    1.9979    2.2782    0.0000 H   0  0  0  0  0  0  0  0  0  0  0  0
    0.0001    0.0000    0.0000 C   0  0  0  0  0  0  0  0  0  0  0  0
    0.6123   -1.4782    0.0000 H   0  0  0  0  0  0  0  0  0  0  0  0
   -0.6123   -1.4782    0.0000 H   0  0  0  0  0  0  0  0  0  0  0  0
   -1.3858    0.8000    0.0000 O   0  0  0  0  0  0  0  0  0  0  0  0
   -2.7714    0.0000    0.0000 C   0  0  0  0  0  0  0  0  0  0  0  0
   -2.1590   -1.4782    0.0000 H   0  0  0  0  0  0  0  0  0  0  0  0
   -3.3836   -1.4782    0.0000 H   0  0  0  0  0  0  0  0  0  0  0  0
   -4.1570    0.8000    0.0000 C   0  0  0  0  0  0  0  0  0  0  0  0
   -4.7692    2.2782    0.0000 H   0  0  0  0  0  0  0  0  0  0  0  0
   -3.5446    2.2782    0.0000 H   0  0  0  0  0  0  0  0  0  0  0  0
   -5.5426    0.0000    0.0000 O   0  0  0  0  0  0  0  0  0  0  0  0
   -6.9283    0.8000    0.0000 C   0  0  0  0  0  0  0  0  0  0  0  0
   -7.5404    2.2782    0.0000 H   0  0  0  0  0  0  0  0  0  0  0  0
   -6.3158    2.2782    0.0000 H   0  0  0  0  0  0  0  0  0  0  0  0
   -8.3139    0.0000    0.0000 C   0  0  0  0  0  0  0  0  0  0  0  0
   -7.7014   -1.4782    0.0000 H   0  0  0  0  0  0  0  0  0  0  0  0
   -8.9260   -1.4782    0.0000 H   0  0  0  0  0  0  0  0  0  0  0  0
   -9.6995    0.8000    0.0000 O   0  0  0  0  0  0  0  0  0  0  0  0
  -11.0851    0.0000    0.0000 H   0  0  0  0  0  0  0  0  0  0  0  0
    6.9282    0.8000    0.0000 O   0  0  0  0  0  0  0  0  0  0  0  0
    8.3138    0.0000    0.0000 H   0  0  0  0  0  0  0  0  0  0  0  0
  1  2  1  0  0  0  0
  1  3  1  0  0  0  0
  1  4  1  0  0  0  0
  4  5  1  0  0  0  0
  4  6  1  0  0  0  0
  4  7  1  0  0  0  0
  7  8  1  0  0  0  0
  8  9  1  0  0  0  0
  8 10  1  0  0  0  0
  8 11  1  0  0  0  0
 11 12  1  0  0  0  0
 11 13  1  0  0  0  0
 11 14  1  0  0  0  0
 14 15  1  0  0  0  0
 15 16  1  0  0  0  0
 15 17  1  0  0  0  0
 15 18  1  0  0  0  0
 18 19  1  0  0  0  0
 18 20  1  0  0  0  0
 18 21  1  0  0  0  0
 21 22  1  0  0  0  0
 22 23  1  0  0  0  0
 22 24  1  0  0  0  0
 22 25  1  0  0  0  0
 25 26  1  0  0  0  0
 25 27  1  0  0  0  0
 25 28  1  0  0  0  0
 28 29  1  0  0  0  0
  1 30  1  0  0  0  0
 30 31  1  0  0  0  0
M  END
> <ChemID>
101202

> <source_casrn>
112-60-7

> <CAS>
112-60-7

> <SMILES>
OCCOCCOCCOCCO

> <NAME>
TETRAETHYLENE GLYCOL

> <preferred_name>
Tetraethylene glycol

> <iupac>
2,2'-[oxybis(ethane-2,1-diyloxy)]diethanol

> <MPID>
20267

> <dsstox_substance_id>
DTXSID9026922

> <Canonical_QSARr>
OCCOCCOCCOCCO

> <InChI_Code_QSARr>
InChI=1S/C8H18O5/c9-1-3-11-5-7-13-8-6-12-4-2-10/h9-10H,1-8H2

> <InChI Key_QSARr>
UWHCKJMYHZGTIT-UHFFFAOYSA-N

> <Salt_Solvent>
?

> <BP>
328.0

$$$$
101206
  -INDIGO-08031720192D

 45 44  0  0  0  0  0  0  0  0999 V2000
   -8.3138    0.0000    0.0000 C   0  0  0  0  0  0  0  0  0  0  0  0
   -7.7015   -1.4782    0.0000 H   0  0  0  0  0  0  0  0  0  0  0  0
   -8.9261   -1.4782    0.0000 H   0  0  0  0  0  0  0  0  0  0  0  0
   -6.9281    0.8000    0.0000 C   0  0  0  0  0  0  0  0  0  0  0  0
   -7.5405    2.2782    0.0000 H   0  0  0  0  0  0  0  0  0  0  0  0
   -6.3158    2.2782    0.0000 H   0  0  0  0  0  0  0  0  0  0  0  0
   -5.5425    0.0000    0.0000 C   0  0  0  0  0  0  0  0  0  0  0  0
   -4.9302   -1.4782    0.0000 H   0  0  0  0  0  0  0  0  0  0  0  0
   -6.1548   -1.4782    0.0000 H   0  0  0  0  0  0  0  0  0  0  0  0
   -4.1568    0.8000    0.0000 C   0  0  0  0  0  0  0  0  0  0  0  0
   -4.7691    2.2782    0.0000 H   0  0  0  0  0  0  0  0  0  0  0  0
   -3.5445    2.2782    0.0000 H   0  0  0  0  0  0  0  0  0  0  0  0
   -2.7712    0.0000    0.0000 C   0  0  0  0  0  0  0  0  0  0  0  0
   -2.1588   -1.4782    0.0000 H   0  0  0  0  0  0  0  0  0  0  0  0
   -3.3835   -1.4782    0.0000 H   0  0  0  0  0  0  0  0  0  0  0  0
   -1.3855    0.8000    0.0000 C   0  0  0  0  0  0  0  0  0  0  0  0
   -1.9978    2.2782    0.0000 H   0  0  0  0  0  0  0  0  0  0  0  0
   -0.7735    2.2782    0.0000 H   0  0  0  0  0  0  0  0  0  0  0  0
   -0.0002    0.0000    0.0000 C   0  0  0  0  0  0  0  0  0  0  0  0
    0.6121   -1.4782    0.0000 H   0  0  0  0  0  0  0  0  0  0  0  0
   -0.6121   -1.4782    0.0000 H   0  0  0  0  0  0  0  0  0  0  0  0
    1.3855    0.8000    0.0000 C   0  0  0  0  0  0  0  0  0  0  0  0
    0.7735    2.2782    0.0000 H   0  0  0  0  0  0  0  0  0  0  0  0
    1.9978    2.2782    0.0000 H   0  0  0  0  0  0  0  0  0  0  0  0
    2.7712    0.0000    0.0000 C   0  0  0  0  0  0  0  0  0  0  0  0
    3.3835   -1.4782    0.0000 H   0  0  0  0  0  0  0  0  0  0  0  0
    2.1588   -1.4782    0.0000 H   0  0  0  0  0  0  0  0  0  0  0  0
    4.1568    0.8000    0.0000 C   0  0  0  0  0  0  0  0  0  0  0  0
    3.5445    2.2782    0.0000 H   0  0  0  0  0  0  0  0  0  0  0  0
    4.7691    2.2782    0.0000 H   0  0  0  0  0  0  0  0  0  0  0  0
    5.5425    0.0000    0.0000 C   0  0  0  0  0  0  0  0  0  0  0  0
    6.1548   -1.4782    0.0000 H   0  0  0  0  0  0  0  0  0  0  0  0
    4.9302   -1.4782    0.0000 H   0  0  0  0  0  0  0  0  0  0  0  0
    6.9281    0.8000    0.0000 C   0  0  0  0  0  0  0  0  0  0  0  0
    6.3158    2.2782    0.0000 H   0  0  0  0  0  0  0  0  0  0  0  0
    7.5405    2.2782    0.0000 H   0  0  0  0  0  0  0  0  0  0  0  0
    8.3138    0.0000    0.0000 C   0  0  0  0  0  0  0  0  0  0  0  0
    8.9261   -1.4782    0.0000 H   0  0  0  0  0  0  0  0  0  0  0  0
    7.7015   -1.4782    0.0000 H   0  0  0  0  0  0  0  0  0  0  0  0
    9.6995    0.8000    0.0000 C   0  0  0  0  0  0  0  0  0  0  0  0
   11.0851    1.6000    0.0000 H   0  0  0  0  0  0  0  0  0  0  0  0
   11.0851    0.0000    0.0000 H   0  0  0  0  0  0  0  0  0  0  0  0
    9.6995    2.4000    0.0000 H   0  0  0  0  0  0  0  0  0  0  0  0
   -9.6995    0.8000    0.0000 O   0  0  0  0  0  0  0  0  0  0  0  0
  -11.0851    0.0000    0.0000 H   0  0  0  0  0  0  0  0  0  0  0  0
  1  2  1  0  0  0  0
  1  3  1  0  0  0  0
  1  4  1  0  0  0  0
  4  5  1  0  0  0  0
  4  6  1  0  0  0  0
  4  7  1  0  0  0  0
  7  8  1  0  0  0  0
  7  9  1  0  0  0  0
  7 10  1  0  0  0  0
 10 11  1  0  0  0  0
 10 12  1  0  0  0  0
 10 13  1  0  0  0  0
 13 14  1  0  0  0  0
 13 15  1  0  0  0  0
 13 16  1  0  0  0  0
 16 17  1  0  0  0  0
 16 18  1  0  0  0  0
 16 19  1  0  0  0  0
 19 20  1  0  0  0  0
 19 21  1  0  0  0  0
 19 22  1  0  0  0  0
 22 23  1  0  0  0  0
 22 24  1  0  0  0  0
 22 25  1  0  0  0  0
 25 26  1  0  0  0  0
 25 27  1  0  0  0  0
 25 28  1  0  0  0  0
 28 29  1  0  0  0  0
 28 30  1  0  0  0  0
 28 31  1  0  0  0  0
 31 32  1  0  0  0  0
 31 33  1  0  0  0  0
 31 34  1  0  0  0  0
 34 35  1  0  0  0  0
 34 36  1  0  0  0  0
 34 37  1  0  0  0  0
 37 38  1  0  0  0  0
 37 39  1  0  0  0  0
 37 40  1  0  0  0  0
 40 41  1  0  0  0  0
 40 42  1  0  0  0  0
 40 43  1  0  0  0  0
  1 44  1  0  0  0  0
 44 45  1  0  0  0  0
M  END
> <ChemID>
101206

> <source_casrn>
112-72-1

> <CAS>
112-72-1

> <SMILES>
CCCCCCCCCCCCCCO

> <NAME>
1-TETRADECANOL

> <preferred_name>
1-Tetradecanol

> <iupac>
tetradecan-1-ol

> <MPID>
20271

> <dsstox_substance_id>
DTXSID9026926

> <Canonical_QSARr>
CCCCCCCCCCCCCCO

> <InChI_Code_QSARr>
InChI=1S/C14H30O/c1-2-3-4-5-6-7-8-9-10-11-12-13-14-15/h15H,2-14H2,1H3

> <InChI Key_QSARr>
HLZKNKRTKFSKGZ-UHFFFAOYSA-N

> <Salt_Solvent>
?

> <BP>
289.0

$$$$
101210
  -INDIGO-08031720192D

 62 61  0  0  0  0  0  0  0  0999 V2000
    9.6994   -0.8000    0.0000 C   0  0  0  0  0  0  0  0  0  0  0  0
   11.0851   -1.6000    0.0000 H   0  0  0  0  0  0  0  0  0  0  0  0
   11.0851    0.0000    0.0000 H   0  0  0  0  0  0  0  0  0  0  0  0
    9.6994   -2.4000    0.0000 H   0  0  0  0  0  0  0  0  0  0  0  0
    8.3140    0.0000    0.0000 C   0  0  0  0  0  0  0  0  0  0  0  0
    8.9263    1.4782    0.0000 H   0  0  0  0  0  0  0  0  0  0  0  0
    7.7017    1.4782    0.0000 H   0  0  0  0  0  0  0  0  0  0  0  0
    6.9283   -0.8000    0.0000 C   0  0  0  0  0  0  0  0  0  0  0  0
    6.3160   -2.2782    0.0000 H   0  0  0  0  0  0  0  0  0  0  0  0
    7.5406   -2.2782    0.0000 H   0  0  0  0  0  0  0  0  0  0  0  0
    5.5425    0.0000    0.0000 C   0  0  0  0  0  0  0  0  0  0  0  0
    6.1548    1.4782    0.0000 H   0  0  0  0  0  0  0  0  0  0  0  0
    4.9302    1.4782    0.0000 H   0  0  0  0  0  0  0  0  0  0  0  0
    4.1567   -0.8000    0.0000 C   0  0  0  0  0  0  0  0  0  0  0  0
    3.5444   -2.2782    0.0000 H   0  0  0  0  0  0  0  0  0  0  0  0
    4.7690   -2.2782    0.0000 H   0  0  0  0  0  0  0  0  0  0  0  0
    2.7714    0.0000    0.0000 C   0  0  0  0  0  0  0  0  0  0  0  0
    3.3837    1.4782    0.0000 H   0  0  0  0  0  0  0  0  0  0  0  0
    2.1591    1.4782    0.0000 H   0  0  0  0  0  0  0  0  0  0  0  0
    1.3856   -0.8000    0.0000 C   0  0  0  0  0  0  0  0  0  0  0  0
    0.7733   -2.2782    0.0000 H   0  0  0  0  0  0  0  0  0  0  0  0
    1.9979   -2.2782    0.0000 H   0  0  0  0  0  0  0  0  0  0  0  0
   -0.0001    0.0000    0.0000 C   0  0  0  0  0  0  0  0  0  0  0  0
    0.6122    1.4782    0.0000 H   0  0  0  0  0  0  0  0  0  0  0  0
   -0.6124    1.4782    0.0000 H   0  0  0  0  0  0  0  0  0  0  0  0
   -1.3855   -0.8000    0.0000 C   0  0  0  0  0  0  0  0  0  0  0  0
   -1.9977   -2.2782    0.0000 H   0  0  0  0  0  0  0  0  0  0  0  0
   -0.7732   -2.2782    0.0000 H   0  0  0  0  0  0  0  0  0  0  0  0
   -2.7712    0.0000    0.0000 C   0  0  0  0  0  0  0  0  0  0  0  0
   -2.1589    1.4782    0.0000 H   0  0  0  0  0  0  0  0  0  0  0  0
   -3.3835    1.4782    0.0000 H   0  0  0  0  0  0  0  0  0  0  0  0
   -4.1570   -0.8000    0.0000 C   0  0  0  0  0  0  0  0  0  0  0  0
   -4.7693   -2.2782    0.0000 H   0  0  0  0  0  0  0  0  0  0  0  0
   -3.5447   -2.2782    0.0000 H   0  0  0  0  0  0  0  0  0  0  0  0
   -5.5428    0.0000    0.0000 C   0  0  0  0  0  0  0  0  0  0  0  0
   -4.9305    1.4782    0.0000 H   0  0  0  0  0  0  0  0  0  0  0  0
   -6.1550    1.4782    0.0000 H   0  0  0  0  0  0  0  0  0  0  0  0
   -6.9281   -0.8000    0.0000 C   0  0  0  0  0  0  0  0  0  0  0  0
   -7.5404   -2.2782    0.0000 H   0  0  0  0  0  0  0  0  0  0  0  0
   -6.3158   -2.2782    0.0000 H   0  0  0  0  0  0  0  0  0  0  0  0
   -8.3138    0.0000    0.0000 C   0  0  0  0  0  0  0  0  0  0  0  0
   -7.7015    1.4782    0.0000 H   0  0  0  0  0  0  0  0  0  0  0  0
   -8.9261    1.4782    0.0000 H   0  0  0  0  0  0  0  0  0  0  0  0
   -9.6996   -0.8000    0.0000 C   0  0  0  0  0  0  0  0  0  0  0  0
  -10.3119   -2.2782    0.0000 H   0  0  0  0  0  0  0  0  0  0  0  0
   -9.0873   -2.2782    0.0000 H   0  0  0  0  0  0  0  0  0  0  0  0
  -11.0849    0.0000    0.0000 C   0  0  0  0  0  0  0  0  0  0  0  0
  -10.4726    1.4782    0.0000 H   0  0  0  0  0  0  0  0  0  0  0  0
  -11.6972    1.4782    0.0000 H   0  0  0  0  0  0  0  0  0  0  0  0
  -12.4707   -0.8000    0.0000 C   0  0  0  0  0  0  0  0  0  0  0  0
  -13.0830   -2.2782    0.0000 H   0  0  0  0  0  0  0  0  0  0  0  0
  -11.8584   -2.2782    0.0000 H   0  0  0  0  0  0  0  0  0  0  0  0
  -13.8565    0.0000    0.0000 C   0  0  0  0  0  0  0  0  0  0  0  0
  -13.2442    1.4782    0.0000 H   0  0  0  0  0  0  0  0  0  0  0  0
  -14.4688    1.4782    0.0000 H   0  0  0  0  0  0  0  0  0  0  0  0
  -15.2422   -0.8000    0.0000 C   0  0  0  0  0  0  0  0  0  0  0  0
  -15.8545   -2.2782    0.0000 H   0  0  0  0  0  0  0  0  0  0  0  0
  -14.6299   -2.2782    0.0000 H   0  0  0  0  0  0  0  0  0  0  0  0
  -16.6276    0.0000    0.0000 C   0  0  0  0  0  0  0  0  0  0  0  0
  -18.0133    0.8000    0.0000 H   0  0  0  0  0  0  0  0  0  0  0  0
  -18.0133   -0.8000    0.0000 H   0  0  0  0  0  0  0  0  0  0  0  0
  -16.6276    1.6000    0.0000 H   0  0  0  0  0  0  0  0  0  0  0  0
  1  2  1  0  0  0  0
  1  3  1  0  0  0  0
  1  4  1  0  0  0  0
  1  5  1  0  0  0  0
  5  6  1  0  0  0  0
  5  7  1  0  0  0  0
  5  8  1  0  0  0  0
  8  9  1  0  0  0  0
  8 10  1  0  0  0  0
  8 11  1  0  0  0  0
 11 12  1  0  0  0  0
 11 13  1  0  0  0  0
 11 14  1  0  0  0  0
 14 15  1  0  0  0  0
 14 16  1  0  0  0  0
 14 17  1  0  0  0  0
 17 18  1  0  0  0  0
 17 19  1  0  0  0  0
 17 20  1  0  0  0  0
 20 21  1  0  0  0  0
 20 22  1  0  0  0  0
 20 23  1  0  0  0  0
 23 24  1  0  0  0  0
 23 25  1  0  0  0  0
 23 26  1  0  0  0  0
 26 27  1  0  0  0  0
 26 28  1  0  0  0  0
 26 29  1  0  0  0  0
 29 30  1  0  0  0  0
 29 31  1  0  0  0  0
 29 32  1  0  0  0  0
 32 33  1  0  0  0  0
 32 34  1  0  0  0  0
 32 35  1  0  0  0  0
 35 36  1  0  0  0  0
 35 37  1  0  0  0  0
 35 38  1  0  0  0  0
 38 39  1  0  0  0  0
 38 40  1  0  0  0  0
 38 41  1  0  0  0  0
 41 42  1  0  0  0  0
 41 43  1  0  0  0  0
 41 44  1  0  0  0  0
 44 45  1  0  0  0  0
 44 46  1  0  0  0  0
 44 47  1  0  0  0  0
 47 48  1  0  0  0  0
 47 49  1  0  0  0  0
 47 50  1  0  0  0  0
 50 51  1  0  0  0  0
 50 52  1  0  0  0  0
 50 53  1  0  0  0  0
 53 54  1  0  0  0  0
 53 55  1  0  0  0  0
 53 56  1  0  0  0  0
 56 57  1  0  0  0  0
 56 58  1  0  0  0  0
 56 59  1  0  0  0  0
 59 60  1  0  0  0  0
 59 61  1  0  0  0  0
 59 62  1  0  0  0  0
M  END
> <ChemID>
101210

> <source_casrn>
112-95-8

> <CAS>
112-95-8

> <SMILES>
CCCCCCCCCCCCCCCCCCCC

> <NAME>
EICOSANE

> <preferred_name>
Eicosane

> <iupac>
icosane

> <MPID>
20275

> <dsstox_substance_id>
DTXSID1025227

> <Canonical_QSARr>
CCCCCCCCCCCCCCCCCCCC

> <InChI_Code_QSARr>
InChI=1S/C20H42/c1-3-5-7-9-11-13-15-17-19-20-18-16-14-12-10-8-6-4-2/h3-20H2,1-2H3

> <InChI Key_QSARr>
CBFCDTFDPHXCNY-UHFFFAOYSA-N

> <Salt_Solvent>
?

> <BP>
343.0

$$$$
101214
  -INDIGO-08031720192D

  9  8  0  0  0  0  0  0  0  0999 V2000
   -0.0000    0.0000    0.0000 C   0  0  0  0  0  0  0  0  0  0  0  0
    1.3856    0.8000    0.0000 H   0  0  0  0  0  0  0  0  0  0  0  0
   -0.0000    1.6000    0.0000 H   0  0  0  0  0  0  0  0  0  0  0  0
    1.3856   -0.8000    0.0000 H   0  0  0  0  0  0  0  0  0  0  0  0
   -1.3856   -0.8000    0.0000 C   0  0  0  0  0  0  0  0  0  0  0  0
   -1.3856   -2.4000    0.0000 H   0  0  0  0  0  0  0  0  0  0  0  0
   -2.7713    0.0000    0.0000 C   0  0  0  0  0  0  0  0  0  0  0  0
   -4.1569   -0.8000    0.0000 H   0  0  0  0  0  0  0  0  0  0  0  0
   -2.7713    1.6000    0.0000 H   0  0  0  0  0  0  0  0  0  0  0  0
  1  2  1  0  0  0  0
  1  3  1  0  0  0  0
  1  4  1  0  0  0  0
  1  5  1  0  0  0  0
  5  6  1  0  0  0  0
  5  7  2  0  0  0  0
  7  8  1  0  0  0  0
  7  9  1  0  0  0  0
M  END
> <ChemID>
101214

> <source_casrn>
115-07-1

> <CAS>
115-07-1

> <SMILES>
CC=C

> <NAME>
PROPENE

> <preferred_name>
1-Propene

> <iupac>
prop-1-ene

> <MPID>
20279

> <dsstox_substance_id>
DTXSID5021205

> <Canonical_QSARr>
CC=C

> <InChI_Code_QSARr>
InChI=1S/C3H6/c1-3-2/h3H,1H2,2H3

> <InChI Key_QSARr>
QQONPFPTGQHPMA-UHFFFAOYSA-N

> <Salt_Solvent>
?

> <BP>
-48.0

$$$$
101218
  -INDIGO-08031720192D

 16 15  0  0  0  0  0  0  0  0999 V2000
    0.8000   -1.3856    0.0000 C   0  0  0  0  0  0  0  0  0  0  0  0
    1.6000   -2.7713    0.0000 H   0  0  0  0  0  0  0  0  0  0  0  0
    0.0000   -2.7713    0.0000 H   0  0  0  0  0  0  0  0  0  0  0  0
    2.4000   -1.3856    0.0000 H   0  0  0  0  0  0  0  0  0  0  0  0
    0.0000    0.0000    0.0000 C   0  0  0  0  0  0  0  0  0  0  0  0
    1.3856    0.8000    0.0000 C   0  0  0  0  0  0  0  0  0  0  0  0
    1.3856    2.4000    0.0000 H   0  0  0  0  0  0  0  0  0  0  0  0
    2.9613    0.5222    0.0000 C   0  0  0  0  0  0  0  0  0  0  0  0
    3.9898    1.7479    0.0000 H   0  0  0  0  0  0  0  0  0  0  0  0
    3.5085   -0.9814    0.0000 H   0  0  0  0  0  0  0  0  0  0  0  0
   -1.3856   -0.8000    0.0000 O   0  0  0  0  0  0  0  0  0  0  0  0
   -2.7713    0.0000    0.0000 H   0  0  0  0  0  0  0  0  0  0  0  0
   -0.8000    1.3856    0.0000 C   0  0  0  0  0  0  0  0  0  0  0  0
   -1.6000    2.7713    0.0000 H   0  0  0  0  0  0  0  0  0  0  0  0
   -2.4000    1.3856    0.0000 H   0  0  0  0  0  0  0  0  0  0  0  0
    0.0000    2.7713    0.0000 H   0  0  0  0  0  0  0  0  0  0  0  0
  1  2  1  0  0  0  0
  1  3  1  0  0  0  0
  1  4  1  0  0  0  0
  1  5  1  0  0  0  0
  5  6  1  0  0  0  0
  6  7  1  0  0  0  0
  6  8  2  0  0  0  0
  8  9  1  0  0  0  0
  8 10  1  0  0  0  0
  5 11  1  0  0  0  0
 11 12  1  0  0  0  0
  5 13  1  0  0  0  0
 13 14  1  0  0  0  0
 13 15  1  0  0  0  0
 13 16  1  0  0  0  0
M  END
> <ChemID>
101218

> <source_casrn>
115-18-4

> <CAS>
115-18-4

> <SMILES>
CC(C)(O)C=C

> <NAME>
3-Buten-2-ol, 2-methyl-

> <preferred_name>
2-Methyl-3-buten-2-ol

> <iupac>
2-methylbut-3-en-2-ol

> <MPID>
20283

> <dsstox_substance_id>
DTXSID3047471

> <Canonical_QSARr>
CC(C)(O)C=C

> <InChI_Code_QSARr>
InChI=1S/C5H10O/c1-4-5(2,3)6/h4,6H,1H2,2-3H3

> <InChI Key_QSARr>
HNVRRHSXBLFLIG-UHFFFAOYSA-N

> <Salt_Solvent>
?

> <BP>
97.0

$$$$
101222
  -INDIGO-08031720192D

 17 16  0  0  0  0  0  0  0  0999 V2000
    2.7713    0.0000    0.0000 C   0  0  0  0  0  0  0  0  0  0  0  0
    4.1569   -0.8000    0.0000 H   0  0  0  0  0  0  0  0  0  0  0  0
    4.1569    0.8000    0.0000 H   0  0  0  0  0  0  0  0  0  0  0  0
    2.7713   -1.6000    0.0000 H   0  0  0  0  0  0  0  0  0  0  0  0
    1.3856    0.8000    0.0000 C   0  0  0  0  0  0  0  0  0  0  0  0
    0.0000    0.0000    0.0000 C   0  0  0  0  0  0  0  0  0  0  0  0
   -1.3856   -0.8000    0.0000 C   0  0  0  0  0  0  0  0  0  0  0  0
   -2.7713   -1.6000    0.0000 H   0  0  0  0  0  0  0  0  0  0  0  0
   -1.3856   -2.4000    0.0000 H   0  0  0  0  0  0  0  0  0  0  0  0
   -2.7713    0.0000    0.0000 H   0  0  0  0  0  0  0  0  0  0  0  0
    0.8000   -1.3856    0.0000 O   0  0  0  0  0  0  0  0  0  0  0  0
    0.0000   -2.7713    0.0000 H   0  0  0  0  0  0  0  0  0  0  0  0
   -0.8000    1.3856    0.0000 C   0  0  0  0  0  0  0  0  0  0  0  0
   -1.6000    2.7713    0.0000 H   0  0  0  0  0  0  0  0  0  0  0  0
    0.0000    2.7713    0.0000 H   0  0  0  0  0  0  0  0  0  0  0  0
   -2.4000    1.3856    0.0000 H   0  0  0  0  0  0  0  0  0  0  0  0
    1.3856    2.4000    0.0000 O   0  0  0  0  0  0  0  0  0  0  0  0
  1  2  1  0  0  0  0
  1  3  1  0  0  0  0
  1  4  1  0  0  0  0
  1  5  1  0  0  0  0
  5  6  1  0  0  0  0
  6  7  1  0  0  0  0
  7  8  1  0  0  0  0
  7  9  1  0  0  0  0
  7 10  1  0  0  0  0
  6 11  1  0  0  0  0
 11 12  1  0  0  0  0
  6 13  1  0  0  0  0
 13 14  1  0  0  0  0
 13 15  1  0  0  0  0
 13 16  1  0  0  0  0
  5 17  2  0  0  0  0
M  END
> <ChemID>
101222

> <source_casrn>
115-22-0

> <CAS>
NOCAS_870468

> <SMILES>
CC(=O)C(C)(C)O

> <NAME>
3-HYDROXY-3-METHYL-2-BUTANONE

> <preferred_name>


> <iupac>


> <MPID>
20287

> <dsstox_substance_id>
DTXSID60870468

> <Canonical_QSARr>
CC(=O)C(C)(C)O

> <InChI_Code_QSARr>
InChI=1S/C5H10O2/c1-4(6)5(2,3)7/h7H,1-3H3

> <InChI Key_QSARr>
BNDRWEVUODOUDW-UHFFFAOYSA-N

> <Salt_Solvent>
?

> <BP>
140.5

$$$$
101226
  -INDIGO-08031720192D

 25 24  0  0  0  0  0  0  0  0999 V2000
    1.6635   -2.3757    0.0000 O   0  0  0  0  0  0  0  0  0  0  0  0
    3.1670   -2.9229    0.0000 H   0  0  0  0  0  0  0  0  0  0  0  0
    1.3856   -0.8000    0.0000 C   0  0  0  0  0  0  0  0  0  0  0  0
    2.9720   -0.5912    0.0000 H   0  0  0  0  0  0  0  0  0  0  0  0
    2.3596    0.4694    0.0000 H   0  0  0  0  0  0  0  0  0  0  0  0
    0.0001    0.0000    0.0000 C   0  0  0  0  0  0  0  0  0  0  0  0
    0.8000    1.3856    0.0000 C   0  0  0  0  0  0  0  0  0  0  0  0
    0.5912    2.9719    0.0000 H   0  0  0  0  0  0  0  0  0  0  0  0
   -0.4694    2.3597    0.0000 H   0  0  0  0  0  0  0  0  0  0  0  0
    2.3757    1.6635    0.0000 C   0  0  0  0  0  0  0  0  0  0  0  0
    3.9514    1.9413    0.0000 H   0  0  0  0  0  0  0  0  0  0  0  0
    2.9229    3.1670    0.0000 H   0  0  0  0  0  0  0  0  0  0  0  0
    3.4042    0.4378    0.0000 H   0  0  0  0  0  0  0  0  0  0  0  0
   -0.8000   -1.3856    0.0000 C   0  0  0  0  0  0  0  0  0  0  0  0
   -0.5912   -2.9719    0.0000 H   0  0  0  0  0  0  0  0  0  0  0  0
    0.4694   -2.3597    0.0000 H   0  0  0  0  0  0  0  0  0  0  0  0
   -2.3757   -1.6635    0.0000 C   0  0  0  0  0  0  0  0  0  0  0  0
   -3.9514   -1.9413    0.0000 H   0  0  0  0  0  0  0  0  0  0  0  0
   -2.9229   -3.1670    0.0000 H   0  0  0  0  0  0  0  0  0  0  0  0
   -3.4042   -0.4378    0.0000 H   0  0  0  0  0  0  0  0  0  0  0  0
   -1.3856    0.8000    0.0000 C   0  0  0  0  0  0  0  0  0  0  0  0
   -2.9720    0.5912    0.0000 H   0  0  0  0  0  0  0  0  0  0  0  0
   -2.3596   -0.4694    0.0000 H   0  0  0  0  0  0  0  0  0  0  0  0
   -1.6635    2.3757    0.0000 O   0  0  0  0  0  0  0  0  0  0  0  0
   -3.1670    2.9229    0.0000 H   0  0  0  0  0  0  0  0  0  0  0  0
  1  2  1  0  0  0  0
  1  3  1  0  0  0  0
  3  4  1  0  0  0  0
  3  5  1  0  0  0  0
  3  6  1  0  0  0  0
  6  7  1  0  0  0  0
  7  8  1  0  0  0  0
  7  9  1  0  0  0  0
  7 10  1  0  0  0  0
 10 11  1  0  0  0  0
 10 12  1  0  0  0  0
 10 13  1  0  0  0  0
  6 14  1  0  0  0  0
 14 15  1  0  0  0  0
 14 16  1  0  0  0  0
 14 17  1  0  0  0  0
 17 18  1  0  0  0  0
 17 19  1  0  0  0  0
 17 20  1  0  0  0  0
  6 21  1  0  0  0  0
 21 22  1  0  0  0  0
 21 23  1  0  0  0  0
 21 24  1  0  0  0  0
 24 25  1  0  0  0  0
M  END
> <ChemID>
101226

> <source_casrn>
115-76-4

> <CAS>
115-76-4

> <SMILES>
CCC(CO)(CO)CC

> <NAME>
2,2-DIETHYL-1,3-PROPANEDIOL

> <preferred_name>
Prenderol

> <iupac>
2,2-Diethylpropane-1,3-diol

> <MPID>
20291

> <dsstox_substance_id>
DTXSID50150923

> <Canonical_QSARr>
CCC(CO)(CO)CC

> <InChI_Code_QSARr>
InChI=1S/C7H16O2/c1-3-7(4-2,5-8)6-9/h8-9H,3-6H2,1-2H3

> <InChI Key_QSARr>
XRVCFZPJAHWYTB-UHFFFAOYSA-N

> <Salt_Solvent>
?

> <BP>
240.5

$$$$
101230
  -INDIGO-08031720192D

 34 33  0  0  0  0  0  0  0  0999 V2000
    0.2528    2.8891    0.0000 C   0  0  0  0  0  0  0  0  0  0  0  0
    1.2813    4.1148    0.0000 H   0  0  0  0  0  0  0  0  0  0  0  0
   -1.3230    3.1670    0.0000 H   0  0  0  0  0  0  0  0  0  0  0  0
    0.8000    1.3856    0.0000 C   0  0  0  0  0  0  0  0  0  0  0  0
    2.4000    1.3856    0.0000 H   0  0  0  0  0  0  0  0  0  0  0  0
   -0.0000   -0.0000    0.0000 C   0  0  0  0  0  0  0  0  0  0  0  0
   -1.3857    0.8000    0.0000 C   0  0  0  0  0  0  0  0  0  0  0  0
   -0.7734    2.2782    0.0000 H   0  0  0  0  0  0  0  0  0  0  0  0
   -1.9979    2.2782    0.0000 H   0  0  0  0  0  0  0  0  0  0  0  0
   -2.7712   -0.0000    0.0000 C   0  0  0  0  0  0  0  0  0  0  0  0
   -3.3835   -1.4782    0.0000 H   0  0  0  0  0  0  0  0  0  0  0  0
   -2.1590   -1.4782    0.0000 H   0  0  0  0  0  0  0  0  0  0  0  0
   -4.1569    0.8000    0.0000 C   0  0  0  0  0  0  0  0  0  0  0  0
   -4.1569    2.4000    0.0000 H   0  0  0  0  0  0  0  0  0  0  0  0
   -5.5425   -0.0000    0.0000 C   0  0  0  0  0  0  0  0  0  0  0  0
   -6.9282    0.8000    0.0000 C   0  0  0  0  0  0  0  0  0  0  0  0
   -8.3138    1.6000    0.0000 H   0  0  0  0  0  0  0  0  0  0  0  0
   -8.3138   -0.0000    0.0000 H   0  0  0  0  0  0  0  0  0  0  0  0
   -6.9282    2.4000    0.0000 H   0  0  0  0  0  0  0  0  0  0  0  0
   -5.5425   -1.6000    0.0000 C   0  0  0  0  0  0  0  0  0  0  0  0
   -5.5425   -3.2000    0.0000 H   0  0  0  0  0  0  0  0  0  0  0  0
   -6.9282   -2.3999    0.0000 H   0  0  0  0  0  0  0  0  0  0  0  0
   -4.1569   -2.3999    0.0000 H   0  0  0  0  0  0  0  0  0  0  0  0
   -0.7999   -1.3857    0.0000 O   0  0  0  0  0  0  0  0  0  0  0  0
   -0.2527   -2.8892    0.0000 C   0  0  0  0  0  0  0  0  0  0  0  0
    1.2508   -3.4364    0.0000 O   0  0  0  0  0  0  0  0  0  0  0  0
   -1.2812   -4.1149    0.0000 C   0  0  0  0  0  0  0  0  0  0  0  0
   -2.3098   -5.3405    0.0000 H   0  0  0  0  0  0  0  0  0  0  0  0
   -0.7340   -5.6183    0.0000 H   0  0  0  0  0  0  0  0  0  0  0  0
   -2.8570   -3.8370    0.0000 H   0  0  0  0  0  0  0  0  0  0  0  0
    1.3856   -0.7999    0.0000 C   0  0  0  0  0  0  0  0  0  0  0  0
    2.7713   -1.6000    0.0000 H   0  0  0  0  0  0  0  0  0  0  0  0
    1.3856   -2.3999    0.0000 H   0  0  0  0  0  0  0  0  0  0  0  0
    2.7713   -0.0000    0.0000 H   0  0  0  0  0  0  0  0  0  0  0  0
  1  2  1  0  0  0  0
  1  3  1  0  0  0  0
  1  4  2  0  0  0  0
  4  5  1  0  0  0  0
  4  6  1  0  0  0  0
  6  7  1  0  0  0  0
  7  8  1  0  0  0  0
  7  9  1  0  0  0  0
  7 10  1  0  0  0  0
 10 11  1  0  0  0  0
 10 12  1  0  0  0  0
 10 13  1  0  0  0  0
 13 14  1  0  0  0  0
 13 15  2  0  0  0  0
 15 16  1  0  0  0  0
 16 17  1  0  0  0  0
 16 18  1  0  0  0  0
 16 19  1  0  0  0  0
 15 20  1  0  0  0  0
 20 21  1  0  0  0  0
 20 22  1  0  0  0  0
 20 23  1  0  0  0  0
  6 24  1  0  0  0  0
 24 25  1  0  0  0  0
 25 26  2  0  0  0  0
 25 27  1  0  0  0  0
 27 28  1  0  0  0  0
 27 29  1  0  0  0  0
 27 30  1  0  0  0  0
  6 31  1  0  0  0  0
 31 32  1  0  0  0  0
 31 33  1  0  0  0  0
 31 34  1  0  0  0  0
M  END
> <ChemID>
101230

> <source_casrn>
115-95-7|16509-46-9

> <CAS>
115-95-7

> <SMILES>
CC(C)=CCCC(C)(C=C)OC(C)=O

> <NAME>
LINALYL ACETATE, 1,6-Octadien-3-ol, 3,7-dimethyl-, acetate, (R)-

> <preferred_name>
Linalyl acetate

> <iupac>
3,7-dimethylocta-1,6-dien-3-yl acetate

> <MPID>
20295|24242

> <dsstox_substance_id>
DTXSID7026946

> <Canonical_QSARr>
CC(C)=CCCC(C)(C=C)OC(C)=O

> <InChI_Code_QSARr>
InChI=1S/C12H20O2/c1-6-12(5,14-11(4)13)9-7-8-10(2)3/h6,8H,1,7,9H2,2-5H3

> <InChI Key_QSARr>
UWKAYLJWKGQEPM-UHFFFAOYSA-N

> <Salt_Solvent>
?

> <BP>
220.0

$$$$
101234
  -INDIGO-08031720192D

  6  5  0  0  0  0  0  0  0  0999 V2000
   -0.8000   -1.3856    0.0000 F   0  0  0  0  0  0  0  0  0  0  0  0
    0.0000    0.0000    0.0000 C   0  0  0  0  0  0  0  0  0  0  0  0
    1.6000    0.0000    0.0000 C   0  0  0  0  0  0  0  0  0  0  0  0
    2.4000    1.3856    0.0000 F   0  0  0  0  0  0  0  0  0  0  0  0
    2.4000   -1.3856    0.0000 F   0  0  0  0  0  0  0  0  0  0  0  0
   -0.8000    1.3856    0.0000 F   0  0  0  0  0  0  0  0  0  0  0  0
  1  2  1  0  0  0  0
  2  3  2  0  0  0  0
  3  4  1  0  0  0  0
  3  5  1  0  0  0  0
  2  6  1  0  0  0  0
M  END
> <ChemID>
101234

> <source_casrn>
116-14-3

> <CAS>
116-14-3

> <SMILES>
FC(F)=C(F)F

> <NAME>
TETRAFLUOROETHYLENE

> <preferred_name>
Tetrafluoroethylene

> <iupac>
tetrafluoroethene

> <MPID>
20299

> <dsstox_substance_id>
DTXSID6021325

> <Canonical_QSARr>
FC(F)=C(F)F

> <InChI_Code_QSARr>
InChI=1S/C2F4/c3-1(4)2(5)6

> <InChI Key_QSARr>
BFKJFAAPBSQJPD-UHFFFAOYSA-N

> <Salt_Solvent>
?

> <BP>
-75.9

$$$$
101238
  -INDIGO-08031720192D

 11 10  0  0  0  0  0  0  0  0999 V2000
   -1.3856   -0.8000    0.0000 C   0  0  0  0  0  0  0  0  0  0  0  0
    0.0000    0.0000    0.0000 C   0  0  0  0  0  0  0  0  0  0  0  0
    1.3856    0.8000    0.0000 H   0  0  0  0  0  0  0  0  0  0  0  0
    0.0000    1.6000    0.0000 Cl  0  0  0  0  0  0  0  0  0  0  0  0
    1.3856   -0.8000    0.0000 Cl  0  0  0  0  0  0  0  0  0  0  0  0
   -2.7713    0.0000    0.0000 O   0  0  0  0  0  0  0  0  0  0  0  0
   -4.1569   -0.8000    0.0000 C   0  0  0  0  0  0  0  0  0  0  0  0
   -5.5426   -1.6000    0.0000 H   0  0  0  0  0  0  0  0  0  0  0  0
   -5.5426    0.0000    0.0000 H   0  0  0  0  0  0  0  0  0  0  0  0
   -4.1569   -2.4000    0.0000 H   0  0  0  0  0  0  0  0  0  0  0  0
   -1.3856   -2.4000    0.0000 O   0  0  0  0  0  0  0  0  0  0  0  0
  1  2  1  0  0  0  0
  2  3  1  0  0  0  0
  2  4  1  0  0  0  0
  2  5  1  0  0  0  0
  1  6  1  0  0  0  0
  6  7  1  0  0  0  0
  7  8  1  0  0  0  0
  7  9  1  0  0  0  0
  7 10  1  0  0  0  0
  1 11  2  0  0  0  0
M  END
> <ChemID>
101238

> <source_casrn>
116-54-1

> <CAS>
116-54-1

> <SMILES>
COC(=O)C(Cl)Cl

> <NAME>
METHYL DICHLOROACETATE

> <preferred_name>
Acetic acid, 2,2-dichloro-, methyl ester

> <iupac>
Methyl 2,2-dichloroacetate

> <MPID>
20303

> <dsstox_substance_id>
DTXSID2059433

> <Canonical_QSARr>
COC(=O)C(Cl)Cl

> <InChI_Code_QSARr>
InChI=1S/C3H4Cl2O2/c1-7-3(6)2(4)5/h2H,1H3

> <InChI Key_QSARr>
HKMLRUAPIDAGIE-UHFFFAOYSA-N

> <Salt_Solvent>
?

> <BP>
142.9

$$$$
101242
  -INDIGO-08031720192D

 28 29  0  0  0  0  0  0  0  0999 V2000
   -1.2945   -2.2420    0.0000 N   0  0  0  0  0  0  0  0  0  0  0  0
    0.2706   -2.5747    0.0000 C   0  0  0  0  0  0  0  0  0  0  0  0
    1.0707   -1.1891    0.0000 C   0  0  0  0  0  0  0  0  0  0  0  0
    2.6706   -1.1891    0.0000 C   0  0  0  0  0  0  0  0  0  0  0  0
    3.6991    0.0367    0.0000 H   0  0  0  0  0  0  0  0  0  0  0  0
    3.4706   -2.5747    0.0000 C   0  0  0  0  0  0  0  0  0  0  0  0
    5.0706   -2.5747    0.0000 H   0  0  0  0  0  0  0  0  0  0  0  0
    2.6706   -3.9603    0.0000 C   0  0  0  0  0  0  0  0  0  0  0  0
    3.4706   -5.3460    0.0000 H   0  0  0  0  0  0  0  0  0  0  0  0
    1.0707   -3.9603    0.0000 C   0  0  0  0  0  0  0  0  0  0  0  0
    0.2706   -5.3460    0.0000 H   0  0  0  0  0  0  0  0  0  0  0  0
    0.0000    0.0000    0.0000 C   0  0  0  0  0  0  0  0  0  0  0  0
    1.2944    0.9405    0.0000 C   0  0  0  0  0  0  0  0  0  0  0  0
    1.1272    2.5317    0.0000 H   0  0  0  0  0  0  0  0  0  0  0  0
    2.5889    1.8810    0.0000 H   0  0  0  0  0  0  0  0  0  0  0  0
    2.7561    0.2897    0.0000 H   0  0  0  0  0  0  0  0  0  0  0  0
   -0.8000    1.3856    0.0000 C   0  0  0  0  0  0  0  0  0  0  0  0
   -1.6000    2.7713    0.0000 H   0  0  0  0  0  0  0  0  0  0  0  0
   -2.4000    1.3856    0.0000 H   0  0  0  0  0  0  0  0  0  0  0  0
    0.0000    2.7713    0.0000 H   0  0  0  0  0  0  0  0  0  0  0  0
   -1.4617   -0.6508    0.0000 C   0  0  0  0  0  0  0  0  0  0  0  0
   -2.9652   -0.1035    0.0000 C   0  0  0  0  0  0  0  0  0  0  0  0
   -4.1909   -1.1320    0.0000 H   0  0  0  0  0  0  0  0  0  0  0  0
   -3.5124    1.4000    0.0000 H   0  0  0  0  0  0  0  0  0  0  0  0
   -2.4834   -3.3127    0.0000 C   0  0  0  0  0  0  0  0  0  0  0  0
   -3.6725   -4.3832    0.0000 H   0  0  0  0  0  0  0  0  0  0  0  0
   -4.0052   -2.8182    0.0000 H   0  0  0  0  0  0  0  0  0  0  0  0
   -2.1507   -4.8776    0.0000 H   0  0  0  0  0  0  0  0  0  0  0  0
  1  2  1  0  0  0  0
  2  3  1  0  0  0  0
  3  4  2  0  0  0  0
  4  5  1  0  0  0  0
  4  6  1  0  0  0  0
  6  7  1  0  0  0  0
  6  8  2  0  0  0  0
  8  9  1  0  0  0  0
  8 10  1  0  0  0  0
 10  2  2  0  0  0  0
 10 11  1  0  0  0  0
  3 12  1  0  0  0  0
 12 13  1  0  0  0  0
 13 14  1  0  0  0  0
 13 15  1  0  0  0  0
 13 16  1  0  0  0  0
 12 17  1  0  0  0  0
 17 18  1  0  0  0  0
 17 19  1  0  0  0  0
 17 20  1  0  0  0  0
 12 21  1  0  0  0  0
 21  1  1  0  0  0  0
 21 22  2  0  0  0  0
 22 23  1  0  0  0  0
 22 24  1  0  0  0  0
  1 25  1  0  0  0  0
 25 26  1  0  0  0  0
 25 27  1  0  0  0  0
 25 28  1  0  0  0  0
M  END
> <ChemID>
101242

> <source_casrn>
118-12-7

> <CAS>
118-12-7

> <SMILES>
CN1C(=C)C(C)(C)c2ccccc12

> <NAME>
1H-Indole, 2,3-dihydro-1,3,3-trimethyl-2-methyle

> <preferred_name>
1,3,3-Trimethyl-2-methyleneindoline

> <iupac>
1,3,3-trimethyl-2-methyleneindoline

> <MPID>
20307

> <dsstox_substance_id>
DTXSID8051596

> <Canonical_QSARr>
CN1C(=C)C(C)(C)c2ccccc12

> <InChI_Code_QSARr>
InChI=1S/C12H15N/c1-9-12(2,3)10-7-5-6-8-11(10)13(9)4/h5-8H,1H2,2-4H3

> <InChI Key_QSARr>
ZTUKGBOUHWYFGC-UHFFFAOYSA-N

> <Salt_Solvent>
?

> <BP>
248.0

$$$$
101247
  -INDIGO-08031720192D

 12 12  0  0  0  0  0  0  0  0999 V2000
    0.8000    1.3856    0.0000 Cl  0  0  0  0  0  0  0  0  0  0  0  0
   -0.0000   -0.0000    0.0000 C   0  0  0  0  0  0  0  0  0  0  0  0
    0.8000   -1.3857    0.0000 C   0  0  0  0  0  0  0  0  0  0  0  0
    2.4000   -1.3857    0.0000 Cl  0  0  0  0  0  0  0  0  0  0  0  0
   -0.0000   -2.7713    0.0000 C   0  0  0  0  0  0  0  0  0  0  0  0
    0.8000   -4.1569    0.0000 Cl  0  0  0  0  0  0  0  0  0  0  0  0
   -1.6000   -2.7713    0.0000 C   0  0  0  0  0  0  0  0  0  0  0  0
   -2.4000   -4.1569    0.0000 Cl  0  0  0  0  0  0  0  0  0  0  0  0
   -2.4000   -1.3856    0.0000 C   0  0  0  0  0  0  0  0  0  0  0  0
   -4.0000   -1.3856    0.0000 Cl  0  0  0  0  0  0  0  0  0  0  0  0
   -1.6000   -0.0000    0.0000 C   0  0  0  0  0  0  0  0  0  0  0  0
   -2.4000    1.3856    0.0000 Cl  0  0  0  0  0  0  0  0  0  0  0  0
  1  2  1  0  0  0  0
  2  3  1  0  0  0  0
  3  4  1  0  0  0  0
  3  5  2  0  0  0  0
  5  6  1  0  0  0  0
  5  7  1  0  0  0  0
  7  8  1  0  0  0  0
  7  9  2  0  0  0  0
  9 10  1  0  0  0  0
  9 11  1  0  0  0  0
 11  2  2  0  0  0  0
 11 12  1  0  0  0  0
M  END
> <ChemID>
101247

> <source_casrn>
118-74-1

> <CAS>
118-74-1

> <SMILES>
Clc1c(Cl)c(Cl)c(Cl)c(Cl)c1Cl

> <NAME>
HEXACHLOROBENZENE

> <preferred_name>
Hexachlorobenzene

> <iupac>
hexachlorobenzene

> <MPID>
20311

> <dsstox_substance_id>
DTXSID2020682

> <Canonical_QSARr>
Clc1c(Cl)c(Cl)c(Cl)c(Cl)c1Cl

> <InChI_Code_QSARr>
InChI=1S/C6Cl6/c7-1-2(8)4(10)6(12)5(11)3(1)9

> <InChI Key_QSARr>
CKAPSXZOOQJIBF-UHFFFAOYSA-N

> <Salt_Solvent>
?

> <BP>
325.0

$$$$
101251
  -INDIGO-08031720192D

 18 18  0  0  0  0  0  0  0  0999 V2000
    2.4000    1.3856    0.0000 C   0  0  0  0  0  0  0  0  0  0  0  0
    4.0000    1.3856    0.0000 H   0  0  0  0  0  0  0  0  0  0  0  0
    3.2001    2.7713    0.0000 H   0  0  0  0  0  0  0  0  0  0  0  0
    3.2001    0.0000    0.0000 H   0  0  0  0  0  0  0  0  0  0  0  0
    0.8000    1.3856    0.0000 C   0  0  0  0  0  0  0  0  0  0  0  0
    0.0001    0.0000    0.0000 C   0  0  0  0  0  0  0  0  0  0  0  0
    0.8000   -1.3856    0.0000 C   0  0  0  0  0  0  0  0  0  0  0  0
    2.4000   -1.3856    0.0000 H   0  0  0  0  0  0  0  0  0  0  0  0
    0.0001   -2.7713    0.0000 C   0  0  0  0  0  0  0  0  0  0  0  0
    0.8000   -4.1569    0.0000 H   0  0  0  0  0  0  0  0  0  0  0  0
   -1.5999   -2.7713    0.0000 C   0  0  0  0  0  0  0  0  0  0  0  0
   -2.4000   -4.1569    0.0000 H   0  0  0  0  0  0  0  0  0  0  0  0
   -2.4000   -1.3856    0.0000 C   0  0  0  0  0  0  0  0  0  0  0  0
   -4.0000   -1.3856    0.0000 H   0  0  0  0  0  0  0  0  0  0  0  0
   -1.5999    0.0000    0.0000 C   0  0  0  0  0  0  0  0  0  0  0  0
   -2.4000    1.3856    0.0000 O   0  0  0  0  0  0  0  0  0  0  0  0
   -4.0000    1.3856    0.0000 H   0  0  0  0  0  0  0  0  0  0  0  0
   -0.0001    2.7713    0.0000 O   0  0  0  0  0  0  0  0  0  0  0  0
  1  2  1  0  0  0  0
  1  3  1  0  0  0  0
  1  4  1  0  0  0  0
  1  5  1  0  0  0  0
  5  6  1  0  0  0  0
  6  7  1  0  0  0  0
  7  8  1  0  0  0  0
  7  9  2  0  0  0  0
  9 10  1  0  0  0  0
  9 11  1  0  0  0  0
 11 12  1  0  0  0  0
 11 13  2  0  0  0  0
 13 14  1  0  0  0  0
 13 15  1  0  0  0  0
 15  6  2  0  0  0  0
 15 16  1  0  0  0  0
 16 17  1  0  0  0  0
  5 18  2  0  0  0  0
M  END
> <ChemID>
101251

> <source_casrn>
118-93-4

> <CAS>
118-93-4

> <SMILES>
CC(=O)c1ccccc1O

> <NAME>
O-HYDROXYACETOPHENONE

> <preferred_name>
2-Hydroxyacetophenone

> <iupac>
1-(2-hydroxyphenyl)ethanone

> <MPID>
20315

> <dsstox_substance_id>
DTXSID7040285

> <Canonical_QSARr>
CC(=O)c1ccccc1O

> <InChI_Code_QSARr>
InChI=1S/C8H8O2/c1-6(9)7-4-2-3-5-8(7)10/h2-5,10H,1H3

> <InChI Key_QSARr>
JECYUBVRTQDVAT-UHFFFAOYSA-N

> <Salt_Solvent>
?

> <BP>
218.0

$$$$
101255
  -INDIGO-08031720192D

 22 23  0  0  0  0  0  0  0  0999 V2000
   -2.7713    1.6000    0.0000 C   0  0  0  0  0  0  0  0  0  0  0  0
   -1.3856    2.4000    0.0000 C   0  0  0  0  0  0  0  0  0  0  0  0
   -2.4141    3.6257    0.0000 H   0  0  0  0  0  0  0  0  0  0  0  0
   -0.3572    3.6257    0.0000 H   0  0  0  0  0  0  0  0  0  0  0  0
    0.0000    1.6000    0.0000 C   0  0  0  0  0  0  0  0  0  0  0  0
    0.5472    3.1035    0.0000 H   0  0  0  0  0  0  0  0  0  0  0  0
    1.5757    1.3221    0.0000 H   0  0  0  0  0  0  0  0  0  0  0  0
    0.0000    0.0000    0.0000 C   0  0  0  0  0  0  0  0  0  0  0  0
    1.5757    0.2779    0.0000 H   0  0  0  0  0  0  0  0  0  0  0  0
    0.5472   -1.5035    0.0000 H   0  0  0  0  0  0  0  0  0  0  0  0
   -1.3856   -0.8000    0.0000 C   0  0  0  0  0  0  0  0  0  0  0  0
   -0.3572   -2.0257    0.0000 H   0  0  0  0  0  0  0  0  0  0  0  0
   -2.4141   -2.0257    0.0000 H   0  0  0  0  0  0  0  0  0  0  0  0
   -2.7713    0.0000    0.0000 C   0  0  0  0  0  0  0  0  0  0  0  0
   -4.1569   -0.8000    0.0000 C   0  0  0  0  0  0  0  0  0  0  0  0
   -4.1569   -2.4000    0.0000 H   0  0  0  0  0  0  0  0  0  0  0  0
   -5.5426    0.0000    0.0000 C   0  0  0  0  0  0  0  0  0  0  0  0
   -6.9282   -0.8000    0.0000 H   0  0  0  0  0  0  0  0  0  0  0  0
   -5.5426    1.6000    0.0000 C   0  0  0  0  0  0  0  0  0  0  0  0
   -6.9282    2.4000    0.0000 H   0  0  0  0  0  0  0  0  0  0  0  0
   -4.1569    2.4000    0.0000 C   0  0  0  0  0  0  0  0  0  0  0  0
   -4.1569    4.0000    0.0000 H   0  0  0  0  0  0  0  0  0  0  0  0
  1  2  1  0  0  0  0
  2  3  1  0  0  0  0
  2  4  1  0  0  0  0
  2  5  1  0  0  0  0
  5  6  1  0  0  0  0
  5  7  1  0  0  0  0
  5  8  1  0  0  0  0
  8  9  1  0  0  0  0
  8 10  1  0  0  0  0
  8 11  1  0  0  0  0
 11 12  1  0  0  0  0
 11 13  1  0  0  0  0
 11 14  1  0  0  0  0
 14  1  1  0  0  0  0
 14 15  2  0  0  0  0
 15 16  1  0  0  0  0
 15 17  1  0  0  0  0
 17 18  1  0  0  0  0
 17 19  2  0  0  0  0
 19 20  1  0  0  0  0
 19 21  1  0  0  0  0
 21  1  2  0  0  0  0
 21 22  1  0  0  0  0
M  END
> <ChemID>
101255

> <source_casrn>
119-64-2

> <CAS>
119-64-2

> <SMILES>
C1CCCc2ccccc21

> <NAME>
TETRALIN

> <preferred_name>
Tetralin

> <iupac>
1,2,3,4-tetrahydronaphthalene

> <MPID>
20319

> <dsstox_substance_id>
DTXSID1026118

> <Canonical_QSARr>
C1CCCc2ccccc21

> <InChI_Code_QSARr>
InChI=1S/C10H12/c1-2-6-10-8-4-3-7-9(10)5-1/h1-2,5-6H,3-4,7-8H2

> <InChI Key_QSARr>
CXWXQJXEFPUFDZ-UHFFFAOYSA-N

> <Salt_Solvent>
?

> <BP>
207.6

$$$$
101259
  -INDIGO-08031720192D

 32 33  0  0  0  0  0  0  0  0999 V2000
    0.0001   -0.0001    0.0000 C   0  0  0  0  0  0  0  0  0  0  0  0
    1.5999   -0.0001    0.0000 C   0  0  0  0  0  0  0  0  0  0  0  0
    2.3999   -1.3856    0.0000 C   0  0  0  0  0  0  0  0  0  0  0  0
    1.5999   -2.7713    0.0000 H   0  0  0  0  0  0  0  0  0  0  0  0
    4.0000   -1.3856    0.0000 C   0  0  0  0  0  0  0  0  0  0  0  0
    4.8000   -2.7712    0.0000 C   0  0  0  0  0  0  0  0  0  0  0  0
    5.6000   -4.1569    0.0000 H   0  0  0  0  0  0  0  0  0  0  0  0
    6.4000   -2.7712    0.0000 H   0  0  0  0  0  0  0  0  0  0  0  0
    4.0000   -4.1569    0.0000 H   0  0  0  0  0  0  0  0  0  0  0  0
    4.8000    0.0001    0.0000 C   0  0  0  0  0  0  0  0  0  0  0  0
    6.4000    0.0001    0.0000 N   0  0  0  0  0  0  0  0  0  0  0  0
    7.2000    1.3856    0.0000 H   0  0  0  0  0  0  0  0  0  0  0  0
    7.2000   -1.3856    0.0000 H   0  0  0  0  0  0  0  0  0  0  0  0
    4.0000    1.3856    0.0000 C   0  0  0  0  0  0  0  0  0  0  0  0
    4.8000    2.7713    0.0000 H   0  0  0  0  0  0  0  0  0  0  0  0
    2.3999    1.3856    0.0000 C   0  0  0  0  0  0  0  0  0  0  0  0
    1.5999    2.7713    0.0000 H   0  0  0  0  0  0  0  0  0  0  0  0
   -0.7999    1.3856    0.0000 C   0  0  0  0  0  0  0  0  0  0  0  0
    0.0001    2.7713    0.0000 H   0  0  0  0  0  0  0  0  0  0  0  0
   -2.4000    1.3856    0.0000 C   0  0  0  0  0  0  0  0  0  0  0  0
   -3.2000    2.7713    0.0000 C   0  0  0  0  0  0  0  0  0  0  0  0
   -4.0000    4.1569    0.0000 H   0  0  0  0  0  0  0  0  0  0  0  0
   -4.8000    2.7713    0.0000 H   0  0  0  0  0  0  0  0  0  0  0  0
   -2.4000    4.1569    0.0000 H   0  0  0  0  0  0  0  0  0  0  0  0
   -3.2000   -0.0001    0.0000 C   0  0  0  0  0  0  0  0  0  0  0  0
   -4.8000   -0.0001    0.0000 N   0  0  0  0  0  0  0  0  0  0  0  0
   -5.6000   -1.3856    0.0000 H   0  0  0  0  0  0  0  0  0  0  0  0
   -5.6000    1.3856    0.0000 H   0  0  0  0  0  0  0  0  0  0  0  0
   -2.4000   -1.3856    0.0000 C   0  0  0  0  0  0  0  0  0  0  0  0
   -3.2000   -2.7712    0.0000 H   0  0  0  0  0  0  0  0  0  0  0  0
   -0.7999   -1.3856    0.0000 C   0  0  0  0  0  0  0  0  0  0  0  0
    0.0001   -2.7712    0.0000 H   0  0  0  0  0  0  0  0  0  0  0  0
  1  2  1  0  0  0  0
  2  3  1  0  0  0  0
  3  4  1  0  0  0  0
  3  5  2  0  0  0  0
  5  6  1  0  0  0  0
  6  7  1  0  0  0  0
  6  8  1  0  0  0  0
  6  9  1  0  0  0  0
  5 10  1  0  0  0  0
 10 11  1  0  0  0  0
 11 12  1  0  0  0  0
 11 13  1  0  0  0  0
 10 14  2  0  0  0  0
 14 15  1  0  0  0  0
 14 16  1  0  0  0  0
 16  2  2  0  0  0  0
 16 17  1  0  0  0  0
  1 18  1  0  0  0  0
 18 19  1  0  0  0  0
 18 20  2  0  0  0  0
 20 21  1  0  0  0  0
 21 22  1  0  0  0  0
 21 23  1  0  0  0  0
 21 24  1  0  0  0  0
 20 25  1  0  0  0  0
 25 26  1  0  0  0  0
 26 27  1  0  0  0  0
 26 28  1  0  0  0  0
 25 29  2  0  0  0  0
 29 30  1  0  0  0  0
 29 31  1  0  0  0  0
 31  1  2  0  0  0  0
 31 32  1  0  0  0  0
M  END
> <ChemID>
101259

> <source_casrn>
119-93-7

> <CAS>
119-93-7

> <SMILES>
Cc1cc(ccc1N)-c1cc(C)c(N)cc1

> <NAME>
BIANISIDINE

> <preferred_name>
3,3'-Dimethylbenzidine

> <iupac>
3,3'-dimethylbiphenyl-4,4'-diamine

> <MPID>
20323

> <dsstox_substance_id>
DTXSID5024059

> <Canonical_QSARr>
Cc1cc(ccc1N)-c1cc(C)c(N)cc1

> <InChI_Code_QSARr>
InChI=1S/C14H16N2/c1-9-7-11(3-5-13(9)15)12-4-6-14(16)10(2)8-12/h3-8H,15-16H2,1-2H3

> <InChI Key_QSARr>
NUIURNJTPRWVAP-UHFFFAOYSA-N

> <Salt_Solvent>
?

> <BP>
339.0

$$$$
101263
  -INDIGO-08031720192D

 25 26  0  0  0  0  0  0  0  0999 V2000
    1.0230    1.2301    0.0000 N   0  0  0  0  0  0  0  0  0  0  0  0
   -0.3450    1.0349    0.0000 C   0  0  0  0  0  0  0  0  0  0  0  0
   -0.0284    2.6032    0.0000 H   0  0  0  0  0  0  0  0  0  0  0  0
   -1.8900    1.9617    0.0000 C   0  0  0  0  0  0  0  0  0  0  0  0
   -3.1726    2.9182    0.0000 H   0  0  0  0  0  0  0  0  0  0  0  0
   -0.9990    3.2907    0.0000 H   0  0  0  0  0  0  0  0  0  0  0  0
   -2.9147    0.7228    0.0000 C   0  0  0  0  0  0  0  0  0  0  0  0
   -3.3752   -0.8095    0.0000 H   0  0  0  0  0  0  0  0  0  0  0  0
   -1.6320    0.9422    0.0000 C   0  0  0  0  0  0  0  0  0  0  0  0
   -1.9532    0.1900    0.0000 H   0  0  0  0  0  0  0  0  0  0  0  0
   -2.7339   -0.2178    0.0000 H   0  0  0  0  0  0  0  0  0  0  0  0
    0.0000   -0.0000    0.0000 C   0  0  0  0  0  0  0  0  0  0  0  0
    1.5317   -0.4628    0.0000 H   0  0  0  0  0  0  0  0  0  0  0  0
    0.1825   -1.7004    0.0000 C   0  0  0  0  0  0  0  0  0  0  0  0
    1.7178   -2.1507    0.0000 H   0  0  0  0  0  0  0  0  0  0  0  0
   -0.8203   -2.9472    0.0000 H   0  0  0  0  0  0  0  0  0  0  0  0
   -0.4939   -0.4660    0.0000 C   0  0  0  0  0  0  0  0  0  0  0  0
   -1.5799   -1.6410    0.0000 H   0  0  0  0  0  0  0  0  0  0  0  0
   -1.2988   -0.6114    0.0000 H   0  0  0  0  0  0  0  0  0  0  0  0
   -4.3858    1.3521    0.0000 O   0  0  0  0  0  0  0  0  0  0  0  0
   -5.6662    0.3928    0.0000 H   0  0  0  0  0  0  0  0  0  0  0  0
    2.4200    2.0104    0.0000 C   0  0  0  0  0  0  0  0  0  0  0  0
    3.8168    2.7907    0.0000 H   0  0  0  0  0  0  0  0  0  0  0  0
    3.7941    1.1908    0.0000 H   0  0  0  0  0  0  0  0  0  0  0  0
    2.4427    3.6102    0.0000 H   0  0  0  0  0  0  0  0  0  0  0  0
  1  2  1  0  0  0  0
  2  3  1  0  0  0  0
  2  4  1  0  0  0  0
  4  5  1  0  0  0  0
  4  6  1  0  0  0  0
  4  7  1  0  0  0  0
  7  8  1  0  0  0  0
  7  9  1  0  0  0  0
  9 10  1  0  0  0  0
  9 11  1  0  0  0  0
  9 12  1  0  0  0  0
 12  1  1  0  0  0  0
 12 13  1  0  0  0  0
 12 14  1  0  0  0  0
 14 15  1  0  0  0  0
 14 16  1  0  0  0  0
 14 17  1  0  0  0  0
 17  2  1  0  0  0  0
 17 18  1  0  0  0  0
 17 19  1  0  0  0  0
  7 20  1  0  0  0  0
 20 21  1  0  0  0  0
  1 22  1  0  0  0  0
 22 23  1  0  0  0  0
 22 24  1  0  0  0  0
 22 25  1  0  0  0  0
M  END
> <ChemID>
101263

> <source_casrn>
120-29-6|135-97-7

> <CAS>
120-29-6

> <SMILES>
CN1[C@@H]2C[C@@H](O)C[C@H]1CC2

> <NAME>
TROPINE, Pseudotropine

> <preferred_name>
Tropine

> <iupac>
(3-endo)-8-methyl-8-azabicyclo[3.2.1]octan-3-ol

> <MPID>
20327|20495

> <dsstox_substance_id>
DTXSID2049399

> <Canonical_QSARr>
CN1C2CC(O)CC1CC2

> <InChI_Code_QSARr>
InChI=1S/C8H15NO/c1-9-6-2-3-7(9)5-8(10)4-6/h6-8,10H,2-5H2,1H3

> <InChI Key_QSARr>
CYHOMWAPJJPNMW-UHFFFAOYSA-N

> <Salt_Solvent>
?

> <BP>
237.0

$$$$
101267
  -INDIGO-08031720192D

 27 27  0  0  0  0  0  0  0  0999 V2000
    4.1570    0.8000    0.0000 C   0  0  0  0  0  0  0  0  0  0  0  0
    4.1570    2.4000    0.0000 O   0  0  0  0  0  0  0  0  0  0  0  0
    5.5426    0.0000    0.0000 C   0  0  0  0  0  0  0  0  0  0  0  0
    5.5426   -1.6000    0.0000 C   0  0  0  0  0  0  0  0  0  0  0  0
    4.1570   -2.4000    0.0000 H   0  0  0  0  0  0  0  0  0  0  0  0
    6.9281   -2.4000    0.0000 C   0  0  0  0  0  0  0  0  0  0  0  0
    6.9281   -4.0000    0.0000 H   0  0  0  0  0  0  0  0  0  0  0  0
    8.3139   -1.6000    0.0000 C   0  0  0  0  0  0  0  0  0  0  0  0
    9.6995   -2.4000    0.0000 H   0  0  0  0  0  0  0  0  0  0  0  0
    8.3139    0.0000    0.0000 C   0  0  0  0  0  0  0  0  0  0  0  0
    9.6995    0.8000    0.0000 H   0  0  0  0  0  0  0  0  0  0  0  0
    6.9281    0.8000    0.0000 C   0  0  0  0  0  0  0  0  0  0  0  0
    6.9281    2.4000    0.0000 H   0  0  0  0  0  0  0  0  0  0  0  0
    2.7712    0.0000    0.0000 O   0  0  0  0  0  0  0  0  0  0  0  0
    1.3856    0.8000    0.0000 C   0  0  0  0  0  0  0  0  0  0  0  0
    0.7733    2.2782    0.0000 H   0  0  0  0  0  0  0  0  0  0  0  0
    1.9980    2.2782    0.0000 H   0  0  0  0  0  0  0  0  0  0  0  0
    0.0001    0.0000    0.0000 C   0  0  0  0  0  0  0  0  0  0  0  0
    1.0285   -1.2257    0.0000 H   0  0  0  0  0  0  0  0  0  0  0  0
   -1.2256   -1.0284    0.0000 C   0  0  0  0  0  0  0  0  0  0  0  0
   -2.4513   -2.0569    0.0000 H   0  0  0  0  0  0  0  0  0  0  0  0
   -2.7292   -0.4812    0.0000 H   0  0  0  0  0  0  0  0  0  0  0  0
   -0.9478   -2.6042    0.0000 H   0  0  0  0  0  0  0  0  0  0  0  0
   -1.0284    1.2256    0.0000 C   0  0  0  0  0  0  0  0  0  0  0  0
   -2.0569    2.4513    0.0000 H   0  0  0  0  0  0  0  0  0  0  0  0
   -0.4813    2.7292    0.0000 H   0  0  0  0  0  0  0  0  0  0  0  0
   -2.6042    0.9479    0.0000 H   0  0  0  0  0  0  0  0  0  0  0  0
  1  2  2  0  0  0  0
  1  3  1  0  0  0  0
  3  4  1  0  0  0  0
  4  5  1  0  0  0  0
  4  6  2  0  0  0  0
  6  7  1  0  0  0  0
  6  8  1  0  0  0  0
  8  9  1  0  0  0  0
  8 10  2  0  0  0  0
 10 11  1  0  0  0  0
 10 12  1  0  0  0  0
 12  3  2  0  0  0  0
 12 13  1  0  0  0  0
  1 14  1  0  0  0  0
 14 15  1  0  0  0  0
 15 16  1  0  0  0  0
 15 17  1  0  0  0  0
 15 18  1  0  0  0  0
 18 19  1  0  0  0  0
 18 20  1  0  0  0  0
 20 21  1  0  0  0  0
 20 22  1  0  0  0  0
 20 23  1  0  0  0  0
 18 24  1  0  0  0  0
 24 25  1  0  0  0  0
 24 26  1  0  0  0  0
 24 27  1  0  0  0  0
M  END
> <ChemID>
101267

> <source_casrn>
120-50-3

> <CAS>
120-50-3

> <SMILES>
CC(C)COC(=O)c1ccccc1

> <NAME>
Benzoic acid, 2-methylpropyl ester

> <preferred_name>
Isobutyl benzoate

> <iupac>
2-methylpropyl benzoate

> <MPID>
20331

> <dsstox_substance_id>
DTXSID6047074

> <Canonical_QSARr>
CC(C)COC(=O)c1ccccc1

> <InChI_Code_QSARr>
InChI=1S/C11H14O2/c1-9(2)8-13-11(12)10-6-4-3-5-7-10/h3-7,9H,8H2,1-2H3

> <InChI Key_QSARr>
KYZHGEFMXZOSJN-UHFFFAOYSA-N

> <Salt_Solvent>
?

> <BP>
242.0

$$$$
101271
  -INDIGO-08031720192D

 24 24  0  0  0  0  0  0  0  0999 V2000
   -2.4001    1.3856    0.0000 O   0  0  0  0  0  0  0  0  0  0  0  0
   -1.6000   -0.0000    0.0000 C   0  0  0  0  0  0  0  0  0  0  0  0
    0.0000    0.0000    0.0000 C   0  0  0  0  0  0  0  0  0  0  0  0
    0.8001    1.3856    0.0000 C   0  0  0  0  0  0  0  0  0  0  0  0
    0.0000    2.7713    0.0000 H   0  0  0  0  0  0  0  0  0  0  0  0
    2.3999    1.3856    0.0000 C   0  0  0  0  0  0  0  0  0  0  0  0
    3.2000    2.7713    0.0000 H   0  0  0  0  0  0  0  0  0  0  0  0
    3.2000    0.0000    0.0000 C   0  0  0  0  0  0  0  0  0  0  0  0
    4.8000   -0.0000    0.0000 C   0  0  0  0  0  0  0  0  0  0  0  0
    5.6001   -1.3856    0.0000 O   0  0  0  0  0  0  0  0  0  0  0  0
    5.6001    1.3856    0.0000 O   0  0  0  0  0  0  0  0  0  0  0  0
    7.1999    1.3856    0.0000 C   0  0  0  0  0  0  0  0  0  0  0  0
    8.8000    1.3856    0.0000 H   0  0  0  0  0  0  0  0  0  0  0  0
    8.0000    2.7713    0.0000 H   0  0  0  0  0  0  0  0  0  0  0  0
    8.0000   -0.0000    0.0000 H   0  0  0  0  0  0  0  0  0  0  0  0
    2.3999   -1.3856    0.0000 C   0  0  0  0  0  0  0  0  0  0  0  0
    3.2000   -2.7713    0.0000 H   0  0  0  0  0  0  0  0  0  0  0  0
    0.8001   -1.3856    0.0000 C   0  0  0  0  0  0  0  0  0  0  0  0
    0.0000   -2.7713    0.0000 H   0  0  0  0  0  0  0  0  0  0  0  0
   -2.4001   -1.3856    0.0000 O   0  0  0  0  0  0  0  0  0  0  0  0
   -3.9999   -1.3856    0.0000 C   0  0  0  0  0  0  0  0  0  0  0  0
   -5.6000   -1.3856    0.0000 H   0  0  0  0  0  0  0  0  0  0  0  0
   -4.8000   -2.7713    0.0000 H   0  0  0  0  0  0  0  0  0  0  0  0
   -4.8000   -0.0000    0.0000 H   0  0  0  0  0  0  0  0  0  0  0  0
  1  2  2  0  0  0  0
  2  3  1  0  0  0  0
  3  4  1  0  0  0  0
  4  5  1  0  0  0  0
  4  6  2  0  0  0  0
  6  7  1  0  0  0  0
  6  8  1  0  0  0  0
  8  9  1  0  0  0  0
  9 10  2  0  0  0  0
  9 11  1  0  0  0  0
 11 12  1  0  0  0  0
 12 13  1  0  0  0  0
 12 14  1  0  0  0  0
 12 15  1  0  0  0  0
  8 16  2  0  0  0  0
 16 17  1  0  0  0  0
 16 18  1  0  0  0  0
 18  3  2  0  0  0  0
 18 19  1  0  0  0  0
  2 20  1  0  0  0  0
 20 21  1  0  0  0  0
 21 22  1  0  0  0  0
 21 23  1  0  0  0  0
 21 24  1  0  0  0  0
M  END
> <ChemID>
101271

> <source_casrn>
120-61-6

> <CAS>
120-61-6

> <SMILES>
COC(=O)c1ccc(cc1)C(=O)OC

> <NAME>
DIMETHYLTEREPHTHALATE

> <preferred_name>
Dimethyl terephthalate

> <iupac>
dimethyl benzene-1,4-dicarboxylate

> <MPID>
20335

> <dsstox_substance_id>
DTXSID0020498

> <Canonical_QSARr>
COC(=O)c1ccc(cc1)C(=O)OC

> <InChI_Code_QSARr>
InChI=1S/C10H10O4/c1-13-9(11)7-3-5-8(6-4-7)10(12)14-2/h3-6H,1-2H3

> <InChI Key_QSARr>
WOZVHXUHUFLZGK-UHFFFAOYSA-N

> <Salt_Solvent>
?

> <BP>
288.0

$$$$
101275
  -INDIGO-08031720192D

 17 18  0  0  0  0  0  0  0  0999 V2000
   -1.5218    0.4944    0.0000 N   0  0  0  0  0  0  0  0  0  0  0  0
   -2.4621   -0.8000    0.0000 C   0  0  0  0  0  0  0  0  0  0  0  0
   -4.0621   -0.8000    0.0000 C   0  0  0  0  0  0  0  0  0  0  0  0
   -5.6621   -0.8000    0.0000 H   0  0  0  0  0  0  0  0  0  0  0  0
   -4.8622    0.5856    0.0000 H   0  0  0  0  0  0  0  0  0  0  0  0
   -4.8622   -2.1856    0.0000 H   0  0  0  0  0  0  0  0  0  0  0  0
   -1.5218   -2.0944    0.0000 S   0  0  0  0  0  0  0  0  0  0  0  0
    0.0001   -1.6000    0.0000 C   0  0  0  0  0  0  0  0  0  0  0  0
    0.0001   -0.0000    0.0000 C   0  0  0  0  0  0  0  0  0  0  0  0
    1.3857    0.8000    0.0000 C   0  0  0  0  0  0  0  0  0  0  0  0
    1.3857    2.4000    0.0000 H   0  0  0  0  0  0  0  0  0  0  0  0
    2.7713   -0.0000    0.0000 C   0  0  0  0  0  0  0  0  0  0  0  0
    4.1569    0.8000    0.0000 H   0  0  0  0  0  0  0  0  0  0  0  0
    2.7713   -1.6000    0.0000 C   0  0  0  0  0  0  0  0  0  0  0  0
    4.1569   -2.4000    0.0000 H   0  0  0  0  0  0  0  0  0  0  0  0
    1.3857   -2.4000    0.0000 C   0  0  0  0  0  0  0  0  0  0  0  0
    1.3857   -4.0000    0.0000 H   0  0  0  0  0  0  0  0  0  0  0  0
  1  2  2  0  0  0  0
  2  3  1  0  0  0  0
  3  4  1  0  0  0  0
  3  5  1  0  0  0  0
  3  6  1  0  0  0  0
  2  7  1  0  0  0  0
  7  8  1  0  0  0  0
  8  9  1  0  0  0  0
  9  1  1  0  0  0  0
  9 10  2  0  0  0  0
 10 11  1  0  0  0  0
 10 12  1  0  0  0  0
 12 13  1  0  0  0  0
 12 14  2  0  0  0  0
 14 15  1  0  0  0  0
 14 16  1  0  0  0  0
 16  8  2  0  0  0  0
 16 17  1  0  0  0  0
M  END
> <ChemID>
101275

> <source_casrn>
120-75-2

> <CAS>
120-75-2

> <SMILES>
Cc1[n]c2ccccc2[s]1

> <NAME>
2-METHYLBENZOTHIAZOLE

> <preferred_name>
2-Methylbenzothiazole

> <iupac>
2-methyl-1,3-benzothiazole

> <MPID>
20339

> <dsstox_substance_id>
DTXSID8049208

> <Canonical_QSARr>
Cc1[n]c2ccccc2[s]1

> <InChI_Code_QSARr>
InChI=1S/C8H7NS/c1-6-9-7-4-2-3-5-8(7)10-6/h2-5H,1H3

> <InChI Key_QSARr>
DXYYSGDWQCSKKO-UHFFFAOYSA-N

> <Salt_Solvent>
?

> <BP>
238.0

$$$$
101279
  -INDIGO-08031720192D

 25 25  0  0  0  0  0  0  0  0999 V2000
   -0.0000    1.6000    0.0000 N   0  0  0  0  0  0  0  0  0  0  0  0
    1.3856    2.4000    0.0000 C   0  0  0  0  0  0  0  0  0  0  0  0
    0.3572    3.6257    0.0000 H   0  0  0  0  0  0  0  0  0  0  0  0
    2.4141    3.6257    0.0000 H   0  0  0  0  0  0  0  0  0  0  0  0
    2.7713    1.6000    0.0000 C   0  0  0  0  0  0  0  0  0  0  0  0
    3.3185    3.1035    0.0000 H   0  0  0  0  0  0  0  0  0  0  0  0
    4.3470    1.3221    0.0000 H   0  0  0  0  0  0  0  0  0  0  0  0
    2.7713    0.0000    0.0000 N   0  0  0  0  0  0  0  0  0  0  0  0
    4.1569   -0.8000    0.0000 C   0  0  0  0  0  0  0  0  0  0  0  0
    5.5426   -1.6000    0.0000 H   0  0  0  0  0  0  0  0  0  0  0  0
    5.5426    0.0000    0.0000 H   0  0  0  0  0  0  0  0  0  0  0  0
    4.1569   -2.4000    0.0000 H   0  0  0  0  0  0  0  0  0  0  0  0
    1.3856   -0.8000    0.0000 C   0  0  0  0  0  0  0  0  0  0  0  0
    2.4141   -2.0256    0.0000 H   0  0  0  0  0  0  0  0  0  0  0  0
    0.3572   -2.0256    0.0000 H   0  0  0  0  0  0  0  0  0  0  0  0
   -0.0000    0.0000    0.0000 C   0  0  0  0  0  0  0  0  0  0  0  0
   -0.5472   -1.5035    0.0000 H   0  0  0  0  0  0  0  0  0  0  0  0
   -1.5756   -0.2778    0.0000 C   0  0  0  0  0  0  0  0  0  0  0  0
   -3.1514   -0.5557    0.0000 H   0  0  0  0  0  0  0  0  0  0  0  0
   -2.1229   -1.7814    0.0000 H   0  0  0  0  0  0  0  0  0  0  0  0
   -2.6042    0.9479    0.0000 H   0  0  0  0  0  0  0  0  0  0  0  0
   -1.2257    2.6285    0.0000 C   0  0  0  0  0  0  0  0  0  0  0  0
   -2.4513    3.6570    0.0000 H   0  0  0  0  0  0  0  0  0  0  0  0
   -0.9479    4.2042    0.0000 H   0  0  0  0  0  0  0  0  0  0  0  0
   -2.7291    2.0813    0.0000 H   0  0  0  0  0  0  0  0  0  0  0  0
  1  2  1  0  0  0  0
  2  3  1  0  0  0  0
  2  4  1  0  0  0  0
  2  5  1  0  0  0  0
  5  6  1  0  0  0  0
  5  7  1  0  0  0  0
  5  8  1  0  0  0  0
  8  9  1  0  0  0  0
  9 10  1  0  0  0  0
  9 11  1  0  0  0  0
  9 12  1  0  0  0  0
  8 13  1  0  0  0  0
 13 14  1  0  0  0  0
 13 15  1  0  0  0  0
 13 16  1  0  0  0  0
 16  1  1  0  0  0  0
 16 17  1  0  0  0  0
 16 18  1  0  0  0  0
 18 19  1  0  0  0  0
 18 20  1  0  0  0  0
 18 21  1  0  0  0  0
  1 22  1  0  0  0  0
 22 23  1  0  0  0  0
 22 24  1  0  0  0  0
 22 25  1  0  0  0  0
M  END
> <ChemID>
101279

> <source_casrn>
120-85-4

> <CAS>
NOCAS_861755

> <SMILES>
CN1CC(C)N(C)CC1

> <NAME>
Piperazine, 1,2,4-trimethyl-

> <preferred_name>


> <iupac>


> <MPID>
20343

> <dsstox_substance_id>
DTXSID60861755

> <Canonical_QSARr>
CN1CC(C)N(C)CC1

> <InChI_Code_QSARr>
InChI=1S/C7H16N2/c1-7-6-8(2)4-5-9(7)3/h7H,4-6H2,1-3H3

> <InChI Key_QSARr>
UAIVFDJJMVMUGY-UHFFFAOYSA-N

> <Salt_Solvent>
?

> <BP>
149.5

$$$$
101283
  -INDIGO-08031720192D

 17 17  0  0  0  0  0  0  0  0999 V2000
    4.1569    2.4000    0.0000 O   0  0  0  0  0  0  0  0  0  0  0  0
    4.1569    0.8000    0.0000 N   0  0  0  0  0  0  0  0  0  0  0  0
    5.5426   -0.0000    0.0000 O   0  0  0  0  0  0  0  0  0  0  0  0
    2.7713   -0.0000    0.0000 C   0  0  0  0  0  0  0  0  0  0  0  0
    2.7713   -1.6000    0.0000 C   0  0  0  0  0  0  0  0  0  0  0  0
    4.1570   -2.4000    0.0000 Cl  0  0  0  0  0  0  0  0  0  0  0  0
    1.3857   -2.4000    0.0000 C   0  0  0  0  0  0  0  0  0  0  0  0
    1.3857   -4.0000    0.0000 H   0  0  0  0  0  0  0  0  0  0  0  0
    0.0000   -1.6000    0.0000 C   0  0  0  0  0  0  0  0  0  0  0  0
   -1.3856   -2.4000    0.0000 H   0  0  0  0  0  0  0  0  0  0  0  0
    0.0000   -0.0000    0.0000 C   0  0  0  0  0  0  0  0  0  0  0  0
   -1.3856    0.8000    0.0000 C   0  0  0  0  0  0  0  0  0  0  0  0
   -2.7713    1.6000    0.0000 F   0  0  0  0  0  0  0  0  0  0  0  0
   -2.7713   -0.0000    0.0000 F   0  0  0  0  0  0  0  0  0  0  0  0
   -1.3856    2.4000    0.0000 F   0  0  0  0  0  0  0  0  0  0  0  0
    1.3857    0.8000    0.0000 C   0  0  0  0  0  0  0  0  0  0  0  0
    1.3857    2.4000    0.0000 H   0  0  0  0  0  0  0  0  0  0  0  0
  1  2  2  0  0  0  0
  2  3  1  0  0  0  0
  2  4  1  0  0  0  0
  4  5  1  0  0  0  0
  5  6  1  0  0  0  0
  5  7  2  0  0  0  0
  7  8  1  0  0  0  0
  7  9  1  0  0  0  0
  9 10  1  0  0  0  0
  9 11  2  0  0  0  0
 11 12  1  0  0  0  0
 12 13  1  0  0  0  0
 12 14  1  0  0  0  0
 12 15  1  0  0  0  0
 11 16  1  0  0  0  0
 16  4  2  0  0  0  0
 16 17  1  0  0  0  0
M  CHG  2   2   1   3  -1
M  END
> <ChemID>
101283

> <source_casrn>
121-17-5

> <CAS>
121-17-5

> <SMILES>
[O-][N+](=O)c1cc(ccc1Cl)C(F)(F)F

> <NAME>
Benzene, 1-chloro-2-nitro-4-(trifluoromethyl)-

> <preferred_name>
1-Chloro-2-nitro-4-(trifluoromethyl)benzene

> <iupac>
1-chloro-2-nitro-4-(trifluoromethyl)benzene

> <MPID>
20347

> <dsstox_substance_id>
DTXSID2024799

> <Canonical_QSARr>
[O-][N+](=O)c1cc(ccc1Cl)C(F)(F)F

> <InChI_Code_QSARr>
InChI=1S/C7H3ClF3NO2/c8-5-2-1-4(7(9,10)11)3-6(5)12(13)14/h1-3H

> <InChI Key_QSARr>
TZGFQIXRVUHDLE-UHFFFAOYSA-N

> <Salt_Solvent>
?

> <BP>
222.0

$$$$
101287
  -INDIGO-08031720192D

 22 21  0  0  0  0  0  0  0  0999 V2000
    2.4000    1.3856    0.0000 C   0  0  0  0  0  0  0  0  0  0  0  0
    3.2001    2.7713    0.0000 H   0  0  0  0  0  0  0  0  0  0  0  0
    4.0000    1.3856    0.0000 H   0  0  0  0  0  0  0  0  0  0  0  0
    1.6001    2.7713    0.0000 H   0  0  0  0  0  0  0  0  0  0  0  0
    1.6001   -0.0000    0.0000 C   0  0  0  0  0  0  0  0  0  0  0  0
    2.8694   -0.9740    0.0000 H   0  0  0  0  0  0  0  0  0  0  0  0
    1.8088   -1.5864    0.0000 H   0  0  0  0  0  0  0  0  0  0  0  0
    0.0001   -0.0000    0.0000 N   0  0  0  0  0  0  0  0  0  0  0  0
   -0.8000    1.3856    0.0000 C   0  0  0  0  0  0  0  0  0  0  0  0
   -0.5911    2.9720    0.0000 H   0  0  0  0  0  0  0  0  0  0  0  0
    0.4693    2.3596    0.0000 H   0  0  0  0  0  0  0  0  0  0  0  0
   -2.4000    1.3856    0.0000 C   0  0  0  0  0  0  0  0  0  0  0  0
   -4.0000    1.3856    0.0000 H   0  0  0  0  0  0  0  0  0  0  0  0
   -3.2001    2.7713    0.0000 H   0  0  0  0  0  0  0  0  0  0  0  0
   -3.2001   -0.0000    0.0000 H   0  0  0  0  0  0  0  0  0  0  0  0
   -0.8000   -1.3857    0.0000 C   0  0  0  0  0  0  0  0  0  0  0  0
   -2.2782   -1.9980    0.0000 H   0  0  0  0  0  0  0  0  0  0  0  0
   -2.2782   -0.7733    0.0000 H   0  0  0  0  0  0  0  0  0  0  0  0
    0.0001   -2.7713    0.0000 C   0  0  0  0  0  0  0  0  0  0  0  0
    0.8000   -4.1569    0.0000 H   0  0  0  0  0  0  0  0  0  0  0  0
   -0.8000   -4.1569    0.0000 H   0  0  0  0  0  0  0  0  0  0  0  0
    1.6001   -2.7713    0.0000 H   0  0  0  0  0  0  0  0  0  0  0  0
  1  2  1  0  0  0  0
  1  3  1  0  0  0  0
  1  4  1  0  0  0  0
  1  5  1  0  0  0  0
  5  6  1  0  0  0  0
  5  7  1  0  0  0  0
  5  8  1  0  0  0  0
  8  9  1  0  0  0  0
  9 10  1  0  0  0  0
  9 11  1  0  0  0  0
  9 12  1  0  0  0  0
 12 13  1  0  0  0  0
 12 14  1  0  0  0  0
 12 15  1  0  0  0  0
  8 16  1  0  0  0  0
 16 17  1  0  0  0  0
 16 18  1  0  0  0  0
 16 19  1  0  0  0  0
 19 20  1  0  0  0  0
 19 21  1  0  0  0  0
 19 22  1  0  0  0  0
M  END
> <ChemID>
101287

> <source_casrn>
121-44-8

> <CAS>
121-44-8

> <SMILES>
CCN(CC)CC

> <NAME>
TRIETHYLAMINE

> <preferred_name>
Triethylamine

> <iupac>
N,N-diethylethanamine

> <MPID>
20351

> <dsstox_substance_id>
DTXSID3024366

> <Canonical_QSARr>
CCN(CC)CC

> <InChI_Code_QSARr>
InChI=1S/C6H15N/c1-4-7(5-2)6-3/h4-6H2,1-3H3

> <InChI Key_QSARr>
ZMANZCXQSJIPKH-UHFFFAOYSA-N

> <Salt_Solvent>
?

> <BP>
89.3

$$$$
101291
  -INDIGO-08031720192D

 18 18  0  0  0  0  0  0  0  0999 V2000
   -0.0000    0.0000    0.0000 C   0  0  0  0  0  0  0  0  0  0  0  0
   -0.8000    1.3856    0.0000 C   0  0  0  0  0  0  0  0  0  0  0  0
   -0.0000    2.7713    0.0000 H   0  0  0  0  0  0  0  0  0  0  0  0
   -2.4000    1.3856    0.0000 C   0  0  0  0  0  0  0  0  0  0  0  0
   -3.2001    2.7713    0.0000 O   0  0  0  0  0  0  0  0  0  0  0  0
   -4.8000    2.7713    0.0000 H   0  0  0  0  0  0  0  0  0  0  0  0
   -3.2001    0.0000    0.0000 C   0  0  0  0  0  0  0  0  0  0  0  0
   -4.8000   -0.0000    0.0000 H   0  0  0  0  0  0  0  0  0  0  0  0
   -2.4000   -1.3856    0.0000 C   0  0  0  0  0  0  0  0  0  0  0  0
   -3.2001   -2.7713    0.0000 H   0  0  0  0  0  0  0  0  0  0  0  0
   -0.8000   -1.3856    0.0000 C   0  0  0  0  0  0  0  0  0  0  0  0
   -0.0000   -2.7713    0.0000 H   0  0  0  0  0  0  0  0  0  0  0  0
    1.6000   -0.0000    0.0000 C   0  0  0  0  0  0  0  0  0  0  0  0
    2.4001   -1.3856    0.0000 C   0  0  0  0  0  0  0  0  0  0  0  0
    3.2000   -2.7713    0.0000 H   0  0  0  0  0  0  0  0  0  0  0  0
    4.0000   -1.3856    0.0000 H   0  0  0  0  0  0  0  0  0  0  0  0
    1.6000   -2.7713    0.0000 H   0  0  0  0  0  0  0  0  0  0  0  0
    2.4001    1.3856    0.0000 O   0  0  0  0  0  0  0  0  0  0  0  0
  1  2  1  0  0  0  0
  2  3  1  0  0  0  0
  2  4  2  0  0  0  0
  4  5  1  0  0  0  0
  5  6  1  0  0  0  0
  4  7  1  0  0  0  0
  7  8  1  0  0  0  0
  7  9  2  0  0  0  0
  9 10  1  0  0  0  0
  9 11  1  0  0  0  0
 11  1  2  0  0  0  0
 11 12  1  0  0  0  0
  1 13  1  0  0  0  0
 13 14  1  0  0  0  0
 14 15  1  0  0  0  0
 14 16  1  0  0  0  0
 14 17  1  0  0  0  0
 13 18  2  0  0  0  0
M  END
> <ChemID>
101291

> <source_casrn>
121-71-1

> <CAS>
121-71-1

> <SMILES>
CC(=O)c1cccc(O)c1

> <NAME>
M-HYDROXYACETOPHENONE

> <preferred_name>
Ethanone, 1-(3-hydroxyphenyl)-

> <iupac>
1-(3-hydroxyphenyl)ethanone

> <MPID>
20355

> <dsstox_substance_id>
DTXSID5059533

> <Canonical_QSARr>
CC(=O)c1cccc(O)c1

> <InChI_Code_QSARr>
InChI=1S/C8H8O2/c1-6(9)7-3-2-4-8(10)5-7/h2-5,10H,1H3

> <InChI Key_QSARr>
LUJMEECXHPYQOF-UHFFFAOYSA-N

> <Salt_Solvent>
?

> <BP>
296.0

$$$$
101295
  -INDIGO-08031720192D

 19 19  0  0  0  0  0  0  0  0999 V2000
   -1.3857    2.4000    0.0000 O   0  0  0  0  0  0  0  0  0  0  0  0
   -1.3857    0.8000    0.0000 C   0  0  0  0  0  0  0  0  0  0  0  0
   -0.0001   -0.0000    0.0000 C   0  0  0  0  0  0  0  0  0  0  0  0
   -0.0001   -1.6000    0.0000 C   0  0  0  0  0  0  0  0  0  0  0  0
   -1.3857   -2.4000    0.0000 H   0  0  0  0  0  0  0  0  0  0  0  0
    1.3857   -2.4000    0.0000 C   0  0  0  0  0  0  0  0  0  0  0  0
    1.3857   -4.0000    0.0000 H   0  0  0  0  0  0  0  0  0  0  0  0
    2.7713   -1.6000    0.0000 C   0  0  0  0  0  0  0  0  0  0  0  0
    4.1569   -2.4000    0.0000 H   0  0  0  0  0  0  0  0  0  0  0  0
    2.7713   -0.0000    0.0000 C   0  0  0  0  0  0  0  0  0  0  0  0
    4.1569    0.8000    0.0000 N   0  0  0  0  0  0  0  0  0  0  0  0
    5.5426   -0.0000    0.0000 O   0  0  0  0  0  0  0  0  0  0  0  0
    4.1569    2.4000    0.0000 O   0  0  0  0  0  0  0  0  0  0  0  0
    1.3857    0.8000    0.0000 C   0  0  0  0  0  0  0  0  0  0  0  0
    1.3857    2.4000    0.0000 H   0  0  0  0  0  0  0  0  0  0  0  0
   -2.7713   -0.0000    0.0000 C   0  0  0  0  0  0  0  0  0  0  0  0
   -4.1569   -0.8000    0.0000 H   0  0  0  0  0  0  0  0  0  0  0  0
   -4.1569    0.8000    0.0000 H   0  0  0  0  0  0  0  0  0  0  0  0
   -2.7713   -1.6000    0.0000 H   0  0  0  0  0  0  0  0  0  0  0  0
  1  2  2  0  0  0  0
  2  3  1  0  0  0  0
  3  4  1  0  0  0  0
  4  5  1  0  0  0  0
  4  6  2  0  0  0  0
  6  7  1  0  0  0  0
  6  8  1  0  0  0  0
  8  9  1  0  0  0  0
  8 10  2  0  0  0  0
 10 11  1  0  0  0  0
 11 12  1  0  0  0  0
 11 13  2  0  0  0  0
 10 14  1  0  0  0  0
 14  3  2  0  0  0  0
 14 15  1  0  0  0  0
  2 16  1  0  0  0  0
 16 17  1  0  0  0  0
 16 18  1  0  0  0  0
 16 19  1  0  0  0  0
M  CHG  2  11   1  12  -1
M  END
> <ChemID>
101295

> <source_casrn>
121-89-1

> <CAS>
121-89-1

> <SMILES>
CC(=O)c1cc(ccc1)[N+]([O-])=O

> <NAME>
3-NITROACETOPHENONE

> <preferred_name>
3-Nitroacetophenone

> <iupac>
1-(3-nitrophenyl)ethanone

> <MPID>
20359

> <dsstox_substance_id>
DTXSID1025722

> <Canonical_QSARr>
CC(=O)c1cc(ccc1)[N+]([O-])=O

> <InChI_Code_QSARr>
InChI=1S/C8H7NO3/c1-6(10)7-3-2-4-8(5-7)9(11)12/h2-5H,1H3

> <InChI Key_QSARr>
ARKIFHPFTHVKDT-UHFFFAOYSA-N

> <Salt_Solvent>
?

> <BP>
202.0

$$$$
101299
  -INDIGO-08031720192D

 14 14  0  0  0  0  0  0  0  0999 V2000
    2.4000   -1.3856    0.0000 Cl  0  0  0  0  0  0  0  0  0  0  0  0
    1.6000   -0.0000    0.0000 C   0  0  0  0  0  0  0  0  0  0  0  0
    2.4000    1.3856    0.0000 O   0  0  0  0  0  0  0  0  0  0  0  0
    0.0000   -0.0000    0.0000 C   0  0  0  0  0  0  0  0  0  0  0  0
   -0.8000    1.3856    0.0000 C   0  0  0  0  0  0  0  0  0  0  0  0
    0.0000    2.7713    0.0000 H   0  0  0  0  0  0  0  0  0  0  0  0
   -2.4000    1.3856    0.0000 C   0  0  0  0  0  0  0  0  0  0  0  0
   -3.2000    2.7713    0.0000 H   0  0  0  0  0  0  0  0  0  0  0  0
   -3.2000   -0.0000    0.0000 C   0  0  0  0  0  0  0  0  0  0  0  0
   -4.8000   -0.0000    0.0000 Cl  0  0  0  0  0  0  0  0  0  0  0  0
   -2.4000   -1.3856    0.0000 C   0  0  0  0  0  0  0  0  0  0  0  0
   -3.2000   -2.7713    0.0000 H   0  0  0  0  0  0  0  0  0  0  0  0
   -0.8000   -1.3856    0.0000 C   0  0  0  0  0  0  0  0  0  0  0  0
    0.0000   -2.7713    0.0000 H   0  0  0  0  0  0  0  0  0  0  0  0
  1  2  1  0  0  0  0
  2  3  2  0  0  0  0
  2  4  1  0  0  0  0
  4  5  1  0  0  0  0
  5  6  1  0  0  0  0
  5  7  2  0  0  0  0
  7  8  1  0  0  0  0
  7  9  1  0  0  0  0
  9 10  1  0  0  0  0
  9 11  2  0  0  0  0
 11 12  1  0  0  0  0
 11 13  1  0  0  0  0
 13  4  2  0  0  0  0
 13 14  1  0  0  0  0
M  END
> <ChemID>
101299

> <source_casrn>
122-01-0

> <CAS>
122-01-0

> <SMILES>
O=C(Cl)c1ccc(Cl)cc1

> <NAME>
Benzoyl chloride, 4-chloro-

> <preferred_name>
4-Chlorobenzoyl chloride

> <iupac>
4-chlorobenzoyl chloride

> <MPID>
20363

> <dsstox_substance_id>
DTXSID4051619

> <Canonical_QSARr>
O=C(Cl)c1ccc(Cl)cc1

> <InChI_Code_QSARr>
InChI=1S/C7H4Cl2O/c8-6-3-1-5(2-4-6)7(9)10/h1-4H

> <InChI Key_QSARr>
RKIDDEGICSMIJA-UHFFFAOYSA-N

> <Salt_Solvent>
?

> <BP>
222.0

$$$$
101303
  -INDIGO-08031720192D

 34 33  0  0  0  0  0  0  0  0999 V2000
    4.0514    2.0569    0.0000 C   0  0  0  0  0  0  0  0  0  0  0  0
    5.2770    3.0853    0.0000 H   0  0  0  0  0  0  0  0  0  0  0  0
    5.5549    1.5096    0.0000 H   0  0  0  0  0  0  0  0  0  0  0  0
    3.7735    3.6327    0.0000 H   0  0  0  0  0  0  0  0  0  0  0  0
    2.8257    1.0285    0.0000 C   0  0  0  0  0  0  0  0  0  0  0  0
    1.7973    2.2541    0.0000 H   0  0  0  0  0  0  0  0  0  0  0  0
    1.6000   -0.0000    0.0000 C   0  0  0  0  0  0  0  0  0  0  0  0
    2.8693   -0.9740    0.0000 H   0  0  0  0  0  0  0  0  0  0  0  0
    1.8089   -1.5863    0.0000 H   0  0  0  0  0  0  0  0  0  0  0  0
    0.0001   -0.0000    0.0000 N   0  0  0  0  0  0  0  0  0  0  0  0
   -0.8001    1.3856    0.0000 C   0  0  0  0  0  0  0  0  0  0  0  0
   -0.5912    2.9719    0.0000 H   0  0  0  0  0  0  0  0  0  0  0  0
    0.4694    2.3596    0.0000 H   0  0  0  0  0  0  0  0  0  0  0  0
   -2.3035    1.9328    0.0000 C   0  0  0  0  0  0  0  0  0  0  0  0
   -2.8508    0.4294    0.0000 H   0  0  0  0  0  0  0  0  0  0  0  0
   -3.8071    2.4801    0.0000 C   0  0  0  0  0  0  0  0  0  0  0  0
   -5.3105    3.0273    0.0000 H   0  0  0  0  0  0  0  0  0  0  0  0
   -4.0848    4.0559    0.0000 H   0  0  0  0  0  0  0  0  0  0  0  0
   -5.0327    1.4516    0.0000 H   0  0  0  0  0  0  0  0  0  0  0  0
   -1.7562    3.4364    0.0000 O   0  0  0  0  0  0  0  0  0  0  0  0
   -2.7848    4.6621    0.0000 H   0  0  0  0  0  0  0  0  0  0  0  0
   -0.8001   -1.3857    0.0000 C   0  0  0  0  0  0  0  0  0  0  0  0
   -2.2781   -1.9980    0.0000 H   0  0  0  0  0  0  0  0  0  0  0  0
   -2.2781   -0.7734    0.0000 H   0  0  0  0  0  0  0  0  0  0  0  0
   -0.5222   -2.9613    0.0000 C   0  0  0  0  0  0  0  0  0  0  0  0
    1.0535   -2.6836    0.0000 H   0  0  0  0  0  0  0  0  0  0  0  0
   -0.2443   -4.5370    0.0000 C   0  0  0  0  0  0  0  0  0  0  0  0
    0.0335   -6.1127    0.0000 H   0  0  0  0  0  0  0  0  0  0  0  0
   -1.4700   -5.5656    0.0000 H   0  0  0  0  0  0  0  0  0  0  0  0
    1.2591   -5.0843    0.0000 H   0  0  0  0  0  0  0  0  0  0  0  0
   -2.0979   -3.2391    0.0000 O   0  0  0  0  0  0  0  0  0  0  0  0
   -2.6450   -4.7427    0.0000 H   0  0  0  0  0  0  0  0  0  0  0  0
    3.8541   -0.1972    0.0000 O   0  0  0  0  0  0  0  0  0  0  0  0
    5.4298    0.0807    0.0000 H   0  0  0  0  0  0  0  0  0  0  0  0
  1  2  1  0  0  0  0
  1  3  1  0  0  0  0
  1  4  1  0  0  0  0
  1  5  1  0  0  0  0
  5  6  1  0  0  0  0
  5  7  1  0  0  0  0
  7  8  1  0  0  0  0
  7  9  1  0  0  0  0
  7 10  1  0  0  0  0
 10 11  1  0  0  0  0
 11 12  1  0  0  0  0
 11 13  1  0  0  0  0
 11 14  1  0  0  0  0
 14 15  1  0  0  0  0
 14 16  1  0  0  0  0
 16 17  1  0  0  0  0
 16 18  1  0  0  0  0
 16 19  1  0  0  0  0
 14 20  1  0  0  0  0
 20 21  1  0  0  0  0
 10 22  1  0  0  0  0
 22 23  1  0  0  0  0
 22 24  1  0  0  0  0
 22 25  1  0  0  0  0
 25 26  1  0  0  0  0
 25 27  1  0  0  0  0
 27 28  1  0  0  0  0
 27 29  1  0  0  0  0
 27 30  1  0  0  0  0
 25 31  1  0  0  0  0
 31 32  1  0  0  0  0
  5 33  1  0  0  0  0
 33 34  1  0  0  0  0
M  END
> <ChemID>
101303

> <source_casrn>
122-20-3

> <CAS>
122-20-3

> <SMILES>
CC(O)CN(CC(C)O)CC(C)O

> <NAME>
2-Propanol, 1,1',1''-nitrilotris-

> <preferred_name>
Triisopropanolamine

> <iupac>
1,1',1''-nitrilotripropan-2-ol

> <MPID>
20367

> <dsstox_substance_id>
DTXSID5021415

> <Canonical_QSARr>
CC(O)CN(CC(C)O)CC(C)O

> <InChI_Code_QSARr>
InChI=1S/C9H21NO3/c1-7(11)4-10(5-8(2)12)6-9(3)13/h7-9,11-13H,4-6H2,1-3H3

> <InChI Key_QSARr>
SLINHMUFWFWBMU-UHFFFAOYSA-N

> <Salt_Solvent>
?

> <BP>
305.0

$$$$
101307
  -INDIGO-08031720192D

 21 21  0  0  0  0  0  0  0  0999 V2000
    6.9282    0.8000    0.0000 C   0  0  0  0  0  0  0  0  0  0  0  0
    8.3138    1.6000    0.0000 H   0  0  0  0  0  0  0  0  0  0  0  0
    8.3138   -0.0000    0.0000 H   0  0  0  0  0  0  0  0  0  0  0  0
    6.9282    2.4000    0.0000 H   0  0  0  0  0  0  0  0  0  0  0  0
    5.5425   -0.0000    0.0000 C   0  0  0  0  0  0  0  0  0  0  0  0
    5.5425   -1.6000    0.0000 O   0  0  0  0  0  0  0  0  0  0  0  0
    4.1569    0.8000    0.0000 O   0  0  0  0  0  0  0  0  0  0  0  0
    2.7712   -0.0000    0.0000 C   0  0  0  0  0  0  0  0  0  0  0  0
    2.7714   -1.6000    0.0000 C   0  0  0  0  0  0  0  0  0  0  0  0
    4.1569   -2.4000    0.0000 H   0  0  0  0  0  0  0  0  0  0  0  0
    1.3857   -2.4000    0.0000 C   0  0  0  0  0  0  0  0  0  0  0  0
    1.3857   -4.0000    0.0000 H   0  0  0  0  0  0  0  0  0  0  0  0
    0.0000   -1.6000    0.0000 C   0  0  0  0  0  0  0  0  0  0  0  0
   -1.3856   -2.4000    0.0000 H   0  0  0  0  0  0  0  0  0  0  0  0
    0.0000   -0.0000    0.0000 C   0  0  0  0  0  0  0  0  0  0  0  0
   -1.3856    0.8000    0.0000 C   0  0  0  0  0  0  0  0  0  0  0  0
   -2.7713    1.6000    0.0000 H   0  0  0  0  0  0  0  0  0  0  0  0
   -2.7713   -0.0000    0.0000 H   0  0  0  0  0  0  0  0  0  0  0  0
   -1.3856    2.4000    0.0000 H   0  0  0  0  0  0  0  0  0  0  0  0
    1.3857    0.8000    0.0000 C   0  0  0  0  0  0  0  0  0  0  0  0
    1.3857    2.4000    0.0000 H   0  0  0  0  0  0  0  0  0  0  0  0
  1  2  1  0  0  0  0
  1  3  1  0  0  0  0
  1  4  1  0  0  0  0
  1  5  1  0  0  0  0
  5  6  2  0  0  0  0
  5  7  1  0  0  0  0
  7  8  1  0  0  0  0
  8  9  1  0  0  0  0
  9 10  1  0  0  0  0
  9 11  2  0  0  0  0
 11 12  1  0  0  0  0
 11 13  1  0  0  0  0
 13 14  1  0  0  0  0
 13 15  2  0  0  0  0
 15 16  1  0  0  0  0
 16 17  1  0  0  0  0
 16 18  1  0  0  0  0
 16 19  1  0  0  0  0
 15 20  1  0  0  0  0
 20  8  2  0  0  0  0
 20 21  1  0  0  0  0
M  END
> <ChemID>
101307

> <source_casrn>
122-46-3

> <CAS>
122-46-3

> <SMILES>
Cc1cccc(c1)OC(C)=O

> <NAME>
M-TOLYLACETATE

> <preferred_name>
m-Cresyl acetate

> <iupac>
3-methylphenyl acetate

> <MPID>
20371

> <dsstox_substance_id>
DTXSID7046041

> <Canonical_QSARr>
Cc1cccc(c1)OC(C)=O

> <InChI_Code_QSARr>
InChI=1S/C9H10O2/c1-7-4-3-5-9(6-7)11-8(2)10/h3-6H,1-2H3

> <InChI Key_QSARr>
OTGAHJPFNKQGAE-UHFFFAOYSA-N

> <Salt_Solvent>
?

> <BP>
212.0

$$$$
101311
  -INDIGO-08031720192D

 21 21  0  0  0  0  0  0  0  0999 V2000
   -4.1569    2.4000    0.0000 O   0  0  0  0  0  0  0  0  0  0  0  0
   -4.1569    0.8000    0.0000 C   0  0  0  0  0  0  0  0  0  0  0  0
   -2.7712   -0.0000    0.0000 C   0  0  0  0  0  0  0  0  0  0  0  0
   -2.7712   -1.6000    0.0000 H   0  0  0  0  0  0  0  0  0  0  0  0
   -1.3857    0.8000    0.0000 C   0  0  0  0  0  0  0  0  0  0  0  0
   -1.3857    2.4000    0.0000 H   0  0  0  0  0  0  0  0  0  0  0  0
   -0.0001   -0.0000    0.0000 C   0  0  0  0  0  0  0  0  0  0  0  0
    1.3856    0.8000    0.0000 C   0  0  0  0  0  0  0  0  0  0  0  0
    1.3856    2.4000    0.0000 H   0  0  0  0  0  0  0  0  0  0  0  0
    2.7713   -0.0000    0.0000 C   0  0  0  0  0  0  0  0  0  0  0  0
    4.1569    0.8000    0.0000 H   0  0  0  0  0  0  0  0  0  0  0  0
    2.7713   -1.6000    0.0000 C   0  0  0  0  0  0  0  0  0  0  0  0
    4.1569   -2.4000    0.0000 H   0  0  0  0  0  0  0  0  0  0  0  0
    1.3856   -2.4000    0.0000 C   0  0  0  0  0  0  0  0  0  0  0  0
    1.3856   -4.0000    0.0000 H   0  0  0  0  0  0  0  0  0  0  0  0
   -0.0001   -1.6000    0.0000 C   0  0  0  0  0  0  0  0  0  0  0  0
   -1.3857   -2.4000    0.0000 H   0  0  0  0  0  0  0  0  0  0  0  0
   -5.5425   -0.0000    0.0000 C   0  0  0  0  0  0  0  0  0  0  0  0
   -6.9282   -0.8000    0.0000 H   0  0  0  0  0  0  0  0  0  0  0  0
   -6.9282    0.8000    0.0000 H   0  0  0  0  0  0  0  0  0  0  0  0
   -5.5425   -1.6000    0.0000 H   0  0  0  0  0  0  0  0  0  0  0  0
  1  2  2  0  0  0  0
  2  3  1  0  0  0  0
  3  4  1  0  0  0  0
  3  5  2  0  0  0  0
  5  6  1  0  0  0  0
  5  7  1  0  0  0  0
  7  8  1  0  0  0  0
  8  9  1  0  0  0  0
  8 10  2  0  0  0  0
 10 11  1  0  0  0  0
 10 12  1  0  0  0  0
 12 13  1  0  0  0  0
 12 14  2  0  0  0  0
 14 15  1  0  0  0  0
 14 16  1  0  0  0  0
 16  7  2  0  0  0  0
 16 17  1  0  0  0  0
  2 18  1  0  0  0  0
 18 19  1  0  0  0  0
 18 20  1  0  0  0  0
 18 21  1  0  0  0  0
M  END
> <ChemID>
101311

> <source_casrn>
122-57-6|1896-62-4

> <CAS>
122-57-6|1896-62-4

> <SMILES>
CC(=O)C=Cc1ccccc1

> <NAME>
METHYL STYRYL KETONE, 4-Phenyl-but-3-en-2-one

> <preferred_name>
Methyl styryl ketone

> <iupac>
4-phenylbut-3-en-2-one

> <MPID>
20375|22986

> <dsstox_substance_id>
DTXSID4025662|DTXSID1031626

> <Canonical_QSARr>
CC(=O)C=Cc1ccccc1

> <InChI_Code_QSARr>
InChI=1S/C10H10O/c1-9(11)7-8-10-5-3-2-4-6-10/h2-8H,1H3/b8-7+

> <InChI Key_QSARr>
BWHOZHOGCMHOBV-BQYQJAHWSA-N

> <Salt_Solvent>
?

> <BP>
261.5

$$$$
101315
  -INDIGO-08031720192D

 26 27  0  0  0  0  0  0  0  0999 V2000
   -2.4000   -1.3856    0.0000 N   0  0  0  0  0  0  0  0  0  0  0  0
   -1.6000   -2.7713    0.0000 H   0  0  0  0  0  0  0  0  0  0  0  0
   -4.0000   -1.3856    0.0000 C   0  0  0  0  0  0  0  0  0  0  0  0
   -4.8000   -2.7713    0.0000 C   0  0  0  0  0  0  0  0  0  0  0  0
   -4.0000   -4.1569    0.0000 H   0  0  0  0  0  0  0  0  0  0  0  0
   -6.4000   -2.7713    0.0000 C   0  0  0  0  0  0  0  0  0  0  0  0
   -7.2000   -4.1569    0.0000 H   0  0  0  0  0  0  0  0  0  0  0  0
   -7.2000   -1.3856    0.0000 C   0  0  0  0  0  0  0  0  0  0  0  0
   -8.8000   -1.3856    0.0000 H   0  0  0  0  0  0  0  0  0  0  0  0
   -6.4000    0.0000    0.0000 C   0  0  0  0  0  0  0  0  0  0  0  0
   -7.2000    1.3856    0.0000 H   0  0  0  0  0  0  0  0  0  0  0  0
   -4.8000    0.0000    0.0000 C   0  0  0  0  0  0  0  0  0  0  0  0
   -4.0000    1.3856    0.0000 H   0  0  0  0  0  0  0  0  0  0  0  0
   -1.6000    0.0000    0.0000 N   0  0  0  0  0  0  0  0  0  0  0  0
   -2.4000    1.3856    0.0000 H   0  0  0  0  0  0  0  0  0  0  0  0
    0.0000    0.0000    0.0000 C   0  0  0  0  0  0  0  0  0  0  0  0
    0.8000    1.3856    0.0000 C   0  0  0  0  0  0  0  0  0  0  0  0
    0.0000    2.7713    0.0000 H   0  0  0  0  0  0  0  0  0  0  0  0
    2.4000    1.3856    0.0000 C   0  0  0  0  0  0  0  0  0  0  0  0
    3.2000    2.7713    0.0000 H   0  0  0  0  0  0  0  0  0  0  0  0
    3.2000    0.0000    0.0000 C   0  0  0  0  0  0  0  0  0  0  0  0
    4.8000    0.0000    0.0000 H   0  0  0  0  0  0  0  0  0  0  0  0
    2.4000   -1.3856    0.0000 C   0  0  0  0  0  0  0  0  0  0  0  0
    3.2000   -2.7713    0.0000 H   0  0  0  0  0  0  0  0  0  0  0  0
    0.8000   -1.3856    0.0000 C   0  0  0  0  0  0  0  0  0  0  0  0
    0.0000   -2.7713    0.0000 H   0  0  0  0  0  0  0  0  0  0  0  0
  1  2  1  0  0  0  0
  1  3  1  0  0  0  0
  3  4  1  0  0  0  0
  4  5  1  0  0  0  0
  4  6  2  0  0  0  0
  6  7  1  0  0  0  0
  6  8  1  0  0  0  0
  8  9  1  0  0  0  0
  8 10  2  0  0  0  0
 10 11  1  0  0  0  0
 10 12  1  0  0  0  0
 12  3  2  0  0  0  0
 12 13  1  0  0  0  0
  1 14  1  0  0  0  0
 14 15  1  0  0  0  0
 14 16  1  0  0  0  0
 16 17  1  0  0  0  0
 17 18  1  0  0  0  0
 17 19  2  0  0  0  0
 19 20  1  0  0  0  0
 19 21  1  0  0  0  0
 21 22  1  0  0  0  0
 21 23  2  0  0  0  0
 23 24  1  0  0  0  0
 23 25  1  0  0  0  0
 25 16  2  0  0  0  0
 25 26  1  0  0  0  0
M  END
> <ChemID>
101315

> <source_casrn>
122-66-7

> <CAS>
122-66-7

> <SMILES>
c1ccccc1NNc1ccccc1

> <NAME>
HYDRAZOBENZENE

> <preferred_name>
1,2-Diphenylhydrazine

> <iupac>
1,2-diphenylhydrazine

> <MPID>
20379

> <dsstox_substance_id>
DTXSID7020710

> <Canonical_QSARr>
c1ccccc1NNc1ccccc1

> <InChI_Code_QSARr>
InChI=1S/C12H12N2/c1-3-7-11(8-4-1)13-14-12-9-5-2-6-10-12/h1-10,13-14H

> <InChI Key_QSARr>
YBQZXXMEJHZYMB-UHFFFAOYSA-N

> <Salt_Solvent>
?

> <BP>
309.0

$$$$
101319
  -INDIGO-08031720192D

 18 18  0  0  0  0  0  0  0  0999 V2000
   -2.7713   -0.0000    0.0000 C   0  0  0  0  0  0  0  0  0  0  0  0
   -2.7713   -1.6000    0.0000 O   0  0  0  0  0  0  0  0  0  0  0  0
   -1.3857    0.8000    0.0000 O   0  0  0  0  0  0  0  0  0  0  0  0
    0.0001   -0.0000    0.0000 C   0  0  0  0  0  0  0  0  0  0  0  0
    0.0001   -1.6000    0.0000 C   0  0  0  0  0  0  0  0  0  0  0  0
   -1.3857   -2.4000    0.0000 H   0  0  0  0  0  0  0  0  0  0  0  0
    1.3857   -2.4000    0.0000 C   0  0  0  0  0  0  0  0  0  0  0  0
    1.3857   -4.0000    0.0000 H   0  0  0  0  0  0  0  0  0  0  0  0
    2.7713   -1.6000    0.0000 C   0  0  0  0  0  0  0  0  0  0  0  0
    4.1569   -2.4000    0.0000 H   0  0  0  0  0  0  0  0  0  0  0  0
    2.7713   -0.0000    0.0000 C   0  0  0  0  0  0  0  0  0  0  0  0
    4.1569    0.8000    0.0000 H   0  0  0  0  0  0  0  0  0  0  0  0
    1.3857    0.8000    0.0000 C   0  0  0  0  0  0  0  0  0  0  0  0
    1.3857    2.4000    0.0000 H   0  0  0  0  0  0  0  0  0  0  0  0
   -4.1569    0.8000    0.0000 C   0  0  0  0  0  0  0  0  0  0  0  0
   -5.5426    1.6000    0.0000 H   0  0  0  0  0  0  0  0  0  0  0  0
   -5.5426   -0.0000    0.0000 H   0  0  0  0  0  0  0  0  0  0  0  0
   -4.1569    2.4000    0.0000 H   0  0  0  0  0  0  0  0  0  0  0  0
  1  2  2  0  0  0  0
  1  3  1  0  0  0  0
  3  4  1  0  0  0  0
  4  5  1  0  0  0  0
  5  6  1  0  0  0  0
  5  7  2  0  0  0  0
  7  8  1  0  0  0  0
  7  9  1  0  0  0  0
  9 10  1  0  0  0  0
  9 11  2  0  0  0  0
 11 12  1  0  0  0  0
 11 13  1  0  0  0  0
 13  4  2  0  0  0  0
 13 14  1  0  0  0  0
  1 15  1  0  0  0  0
 15 16  1  0  0  0  0
 15 17  1  0  0  0  0
 15 18  1  0  0  0  0
M  END
> <ChemID>
101319

> <source_casrn>
122-79-2

> <CAS>
122-79-2

> <SMILES>
CC(=O)Oc1ccccc1

> <NAME>
PHENYL ACETATE

> <preferred_name>
Phenyl acetate

> <iupac>
phenyl acetate

> <MPID>
20383

> <dsstox_substance_id>
DTXSID3051626

> <Canonical_QSARr>
CC(=O)Oc1ccccc1

> <InChI_Code_QSARr>
InChI=1S/C8H8O2/c1-7(9)10-8-5-3-2-4-6-8/h2-6H,1H3

> <InChI Key_QSARr>
IPBVNPXQWQGGJP-UHFFFAOYSA-N

> <Salt_Solvent>
?

> <BP>
196.0

$$$$
101323
  -INDIGO-08031720192D

 22 22  0  0  0  0  0  0  0  0999 V2000
   -1.3856   -0.8000    0.0000 C   0  0  0  0  0  0  0  0  0  0  0  0
   -1.3856   -2.4000    0.0000 C   0  0  0  0  0  0  0  0  0  0  0  0
    0.0001   -3.2000    0.0000 H   0  0  0  0  0  0  0  0  0  0  0  0
   -2.7712   -3.2000    0.0000 C   0  0  0  0  0  0  0  0  0  0  0  0
   -2.7712   -4.8000    0.0000 H   0  0  0  0  0  0  0  0  0  0  0  0
   -4.1569   -2.4000    0.0000 C   0  0  0  0  0  0  0  0  0  0  0  0
   -5.5426   -3.2000    0.0000 H   0  0  0  0  0  0  0  0  0  0  0  0
   -4.1569   -0.8000    0.0000 C   0  0  0  0  0  0  0  0  0  0  0  0
   -5.5426   -0.0000    0.0000 H   0  0  0  0  0  0  0  0  0  0  0  0
   -2.7712   -0.0000    0.0000 C   0  0  0  0  0  0  0  0  0  0  0  0
   -2.7712    1.6000    0.0000 H   0  0  0  0  0  0  0  0  0  0  0  0
    0.0001   -0.0000    0.0000 C   0  0  0  0  0  0  0  0  0  0  0  0
    0.6122    1.4782    0.0000 H   0  0  0  0  0  0  0  0  0  0  0  0
   -0.6122    1.4782    0.0000 H   0  0  0  0  0  0  0  0  0  0  0  0
    1.3856   -0.8000    0.0000 C   0  0  0  0  0  0  0  0  0  0  0  0
    0.7734   -2.2782    0.0000 H   0  0  0  0  0  0  0  0  0  0  0  0
    1.9979   -2.2782    0.0000 H   0  0  0  0  0  0  0  0  0  0  0  0
    2.7712   -0.0000    0.0000 C   0  0  0  0  0  0  0  0  0  0  0  0
    3.3836    1.4782    0.0000 H   0  0  0  0  0  0  0  0  0  0  0  0
    2.1589    1.4782    0.0000 H   0  0  0  0  0  0  0  0  0  0  0  0
    4.1569   -0.8000    0.0000 O   0  0  0  0  0  0  0  0  0  0  0  0
    5.5426   -0.0000    0.0000 H   0  0  0  0  0  0  0  0  0  0  0  0
  1  2  1  0  0  0  0
  2  3  1  0  0  0  0
  2  4  2  0  0  0  0
  4  5  1  0  0  0  0
  4  6  1  0  0  0  0
  6  7  1  0  0  0  0
  6  8  2  0  0  0  0
  8  9  1  0  0  0  0
  8 10  1  0  0  0  0
 10  1  2  0  0  0  0
 10 11  1  0  0  0  0
  1 12  1  0  0  0  0
 12 13  1  0  0  0  0
 12 14  1  0  0  0  0
 12 15  1  0  0  0  0
 15 16  1  0  0  0  0
 15 17  1  0  0  0  0
 15 18  1  0  0  0  0
 18 19  1  0  0  0  0
 18 20  1  0  0  0  0
 18 21  1  0  0  0  0
 21 22  1  0  0  0  0
M  END
> <ChemID>
101323

> <source_casrn>
122-97-4

> <CAS>
122-97-4

> <SMILES>
OCCCc1ccccc1

> <NAME>
3-PHENYLPROPANOL

> <preferred_name>
3-Phenyl-1-propanol

> <iupac>
3-phenylpropan-1-ol

> <MPID>
20387

> <dsstox_substance_id>
DTXSID6041638

> <Canonical_QSARr>
OCCCc1ccccc1

> <InChI_Code_QSARr>
InChI=1S/C9H12O/c10-8-4-7-9-5-2-1-3-6-9/h1-3,5-6,10H,4,7-8H2

> <InChI Key_QSARr>
VAJVDSVGBWFCLW-UHFFFAOYSA-N

> <Salt_Solvent>
?

> <BP>
235.0

$$$$
101327
  -INDIGO-08031720192D

 48 48  0  0  0  0  0  0  0  0999 V2000
   -8.3138   -0.0000    0.0000 C   0  0  0  0  0  0  0  0  0  0  0  0
   -8.3138   -1.6000    0.0000 C   0  0  0  0  0  0  0  0  0  0  0  0
   -6.9281   -2.4000    0.0000 H   0  0  0  0  0  0  0  0  0  0  0  0
   -9.6994   -2.4000    0.0000 C   0  0  0  0  0  0  0  0  0  0  0  0
   -9.6994   -4.0000    0.0000 H   0  0  0  0  0  0  0  0  0  0  0  0
  -11.0851   -1.6000    0.0000 C   0  0  0  0  0  0  0  0  0  0  0  0
  -12.4708   -2.4000    0.0000 H   0  0  0  0  0  0  0  0  0  0  0  0
  -11.0851   -0.0000    0.0000 C   0  0  0  0  0  0  0  0  0  0  0  0
  -12.4708    0.8000    0.0000 H   0  0  0  0  0  0  0  0  0  0  0  0
   -9.6994    0.8000    0.0000 C   0  0  0  0  0  0  0  0  0  0  0  0
   -9.6994    2.4000    0.0000 H   0  0  0  0  0  0  0  0  0  0  0  0
   -6.9281    0.8000    0.0000 C   0  0  0  0  0  0  0  0  0  0  0  0
   -6.3158    2.2782    0.0000 H   0  0  0  0  0  0  0  0  0  0  0  0
   -7.5404    2.2782    0.0000 H   0  0  0  0  0  0  0  0  0  0  0  0
   -5.5425   -0.0000    0.0000 C   0  0  0  0  0  0  0  0  0  0  0  0
   -6.1548   -1.4782    0.0000 H   0  0  0  0  0  0  0  0  0  0  0  0
   -4.9301   -1.4782    0.0000 H   0  0  0  0  0  0  0  0  0  0  0  0
   -4.1568    0.8000    0.0000 C   0  0  0  0  0  0  0  0  0  0  0  0
   -3.5445    2.2782    0.0000 H   0  0  0  0  0  0  0  0  0  0  0  0
   -4.7691    2.2782    0.0000 H   0  0  0  0  0  0  0  0  0  0  0  0
   -2.7711   -0.0000    0.0000 C   0  0  0  0  0  0  0  0  0  0  0  0
   -3.3834   -1.4782    0.0000 H   0  0  0  0  0  0  0  0  0  0  0  0
   -2.1592   -1.4782    0.0000 H   0  0  0  0  0  0  0  0  0  0  0  0
   -1.3855    0.8000    0.0000 C   0  0  0  0  0  0  0  0  0  0  0  0
   -0.7735    2.2782    0.0000 H   0  0  0  0  0  0  0  0  0  0  0  0
   -1.9978    2.2782    0.0000 H   0  0  0  0  0  0  0  0  0  0  0  0
   -0.0001   -0.0000    0.0000 C   0  0  0  0  0  0  0  0  0  0  0  0
   -0.6121   -1.4782    0.0000 H   0  0  0  0  0  0  0  0  0  0  0  0
    0.6122   -1.4782    0.0000 H   0  0  0  0  0  0  0  0  0  0  0  0
    1.3855    0.8000    0.0000 C   0  0  0  0  0  0  0  0  0  0  0  0
    1.9978    2.2782    0.0000 H   0  0  0  0  0  0  0  0  0  0  0  0
    0.7732    2.2782    0.0000 H   0  0  0  0  0  0  0  0  0  0  0  0
    2.7712   -0.0000    0.0000 C   0  0  0  0  0  0  0  0  0  0  0  0
    2.1589   -1.4782    0.0000 H   0  0  0  0  0  0  0  0  0  0  0  0
    3.3835   -1.4782    0.0000 H   0  0  0  0  0  0  0  0  0  0  0  0
    4.1568    0.8000    0.0000 C   0  0  0  0  0  0  0  0  0  0  0  0
    4.7692    2.2782    0.0000 H   0  0  0  0  0  0  0  0  0  0  0  0
    3.5445    2.2782    0.0000 H   0  0  0  0  0  0  0  0  0  0  0  0
    5.5425   -0.0000    0.0000 C   0  0  0  0  0  0  0  0  0  0  0  0
    4.9302   -1.4782    0.0000 H   0  0  0  0  0  0  0  0  0  0  0  0
    6.1548   -1.4782    0.0000 H   0  0  0  0  0  0  0  0  0  0  0  0
    6.9282    0.8000    0.0000 C   0  0  0  0  0  0  0  0  0  0  0  0
    7.5405    2.2782    0.0000 H   0  0  0  0  0  0  0  0  0  0  0  0
    6.3158    2.2782    0.0000 H   0  0  0  0  0  0  0  0  0  0  0  0
    8.3138   -0.0000    0.0000 C   0  0  0  0  0  0  0  0  0  0  0  0
    9.6995   -0.8000    0.0000 H   0  0  0  0  0  0  0  0  0  0  0  0
    9.6995    0.8000    0.0000 H   0  0  0  0  0  0  0  0  0  0  0  0
    8.3138   -1.6000    0.0000 H   0  0  0  0  0  0  0  0  0  0  0  0
  1  2  1  0  0  0  0
  2  3  1  0  0  0  0
  2  4  2  0  0  0  0
  4  5  1  0  0  0  0
  4  6  1  0  0  0  0
  6  7  1  0  0  0  0
  6  8  2  0  0  0  0
  8  9  1  0  0  0  0
  8 10  1  0  0  0  0
 10  1  2  0  0  0  0
 10 11  1  0  0  0  0
  1 12  1  0  0  0  0
 12 13  1  0  0  0  0
 12 14  1  0  0  0  0
 12 15  1  0  0  0  0
 15 16  1  0  0  0  0
 15 17  1  0  0  0  0
 15 18  1  0  0  0  0
 18 19  1  0  0  0  0
 18 20  1  0  0  0  0
 18 21  1  0  0  0  0
 21 22  1  0  0  0  0
 21 23  1  0  0  0  0
 21 24  1  0  0  0  0
 24 25  1  0  0  0  0
 24 26  1  0  0  0  0
 24 27  1  0  0  0  0
 27 28  1  0  0  0  0
 27 29  1  0  0  0  0
 27 30  1  0  0  0  0
 30 31  1  0  0  0  0
 30 32  1  0  0  0  0
 30 33  1  0  0  0  0
 33 34  1  0  0  0  0
 33 35  1  0  0  0  0
 33 36  1  0  0  0  0
 36 37  1  0  0  0  0
 36 38  1  0  0  0  0
 36 39  1  0  0  0  0
 39 40  1  0  0  0  0
 39 41  1  0  0  0  0
 39 42  1  0  0  0  0
 42 43  1  0  0  0  0
 42 44  1  0  0  0  0
 42 45  1  0  0  0  0
 45 46  1  0  0  0  0
 45 47  1  0  0  0  0
 45 48  1  0  0  0  0
M  END
> <ChemID>
101327

> <source_casrn>
123-01-3

> <CAS>
123-01-3

> <SMILES>
CCCCCCCCCCCCc1ccccc1

> <NAME>
DODECYLBENZENE

> <preferred_name>
Dodecylbenzene

> <iupac>
dodecylbenzene

> <MPID>
20391

> <dsstox_substance_id>
DTXSID7026994

> <Canonical_QSARr>
CCCCCCCCCCCCc1ccccc1

> <InChI_Code_QSARr>
InChI=1S/C18H30/c1-2-3-4-5-6-7-8-9-10-12-15-18-16-13-11-14-17-18/h11,13-14,16-17H,2-10,12,15H2,1H3

> <InChI Key_QSARr>
KWKXNDCHNDYVRT-UHFFFAOYSA-N

> <Salt_Solvent>
?

> <BP>
328.0

$$$$
101331
  -INDIGO-08031720192D

 19 19  0  0  0  0  0  0  0  0999 V2000
    4.8000   -0.0000    0.0000 O   0  0  0  0  0  0  0  0  0  0  0  0
    5.6000   -1.3856    0.0000 H   0  0  0  0  0  0  0  0  0  0  0  0
    3.2000   -0.0000    0.0000 C   0  0  0  0  0  0  0  0  0  0  0  0
    2.4000    1.3856    0.0000 C   0  0  0  0  0  0  0  0  0  0  0  0
    3.2000    2.7713    0.0000 H   0  0  0  0  0  0  0  0  0  0  0  0
    0.8001    1.3856    0.0000 C   0  0  0  0  0  0  0  0  0  0  0  0
   -0.0000    2.7713    0.0000 H   0  0  0  0  0  0  0  0  0  0  0  0
   -0.0000   -0.0000    0.0000 C   0  0  0  0  0  0  0  0  0  0  0  0
   -1.6000   -0.0000    0.0000 C   0  0  0  0  0  0  0  0  0  0  0  0
   -1.8089   -1.5863    0.0000 H   0  0  0  0  0  0  0  0  0  0  0  0
   -2.8694   -0.9740    0.0000 H   0  0  0  0  0  0  0  0  0  0  0  0
   -2.4001    1.3856    0.0000 C   0  0  0  0  0  0  0  0  0  0  0  0
   -4.0000    1.3856    0.0000 H   0  0  0  0  0  0  0  0  0  0  0  0
   -3.2000    2.7713    0.0000 H   0  0  0  0  0  0  0  0  0  0  0  0
   -3.2000   -0.0000    0.0000 H   0  0  0  0  0  0  0  0  0  0  0  0
    0.8001   -1.3856    0.0000 C   0  0  0  0  0  0  0  0  0  0  0  0
   -0.0000   -2.7713    0.0000 H   0  0  0  0  0  0  0  0  0  0  0  0
    2.4000   -1.3856    0.0000 C   0  0  0  0  0  0  0  0  0  0  0  0
    3.2000   -2.7713    0.0000 H   0  0  0  0  0  0  0  0  0  0  0  0
  1  2  1  0  0  0  0
  1  3  1  0  0  0  0
  3  4  1  0  0  0  0
  4  5  1  0  0  0  0
  4  6  2  0  0  0  0
  6  7  1  0  0  0  0
  6  8  1  0  0  0  0
  8  9  1  0  0  0  0
  9 10  1  0  0  0  0
  9 11  1  0  0  0  0
  9 12  1  0  0  0  0
 12 13  1  0  0  0  0
 12 14  1  0  0  0  0
 12 15  1  0  0  0  0
  8 16  2  0  0  0  0
 16 17  1  0  0  0  0
 16 18  1  0  0  0  0
 18  3  2  0  0  0  0
 18 19  1  0  0  0  0
M  END
> <ChemID>
101331

> <source_casrn>
123-07-9

> <CAS>
123-07-9

> <SMILES>
CCc1ccc(O)cc1

> <NAME>
P-ETHYLPHENOL

> <preferred_name>
4-Ethylphenol

> <iupac>
4-ethylphenol

> <MPID>
20395

> <dsstox_substance_id>
DTXSID4021977

> <Canonical_QSARr>
CCc1ccc(O)cc1

> <InChI_Code_QSARr>
InChI=1S/C8H10O/c1-2-7-3-5-8(9)6-4-7/h3-6,9H,2H2,1H3

> <InChI Key_QSARr>
HXDOZKJGKXYMEW-UHFFFAOYSA-N

> <Salt_Solvent>
?

> <BP>
217.9

$$$$
101335
  -INDIGO-08031720192D

 39 38  0  0  0  0  0  0  0  0999 V2000
    6.0264   -0.9430    0.0000 C   0  0  0  0  0  0  0  0  0  0  0  0
    7.5299   -1.4902    0.0000 H   0  0  0  0  0  0  0  0  0  0  0  0
    6.3043   -2.5186    0.0000 H   0  0  0  0  0  0  0  0  0  0  0  0
    7.2520    0.0856    0.0000 H   0  0  0  0  0  0  0  0  0  0  0  0
    4.5230   -0.3957    0.0000 C   0  0  0  0  0  0  0  0  0  0  0  0
    2.9472   -0.6736    0.0000 H   0  0  0  0  0  0  0  0  0  0  0  0
    3.7230   -1.7814    0.0000 C   0  0  0  0  0  0  0  0  0  0  0  0
    3.9317   -3.3676    0.0000 H   0  0  0  0  0  0  0  0  0  0  0  0
    4.9922   -2.7553    0.0000 H   0  0  0  0  0  0  0  0  0  0  0  0
    2.1229   -1.7814    0.0000 C   0  0  0  0  0  0  0  0  0  0  0  0
    0.7373   -2.5813    0.0000 H   0  0  0  0  0  0  0  0  0  0  0  0
    1.5758   -0.2779    0.0000 C   0  0  0  0  0  0  0  0  0  0  0  0
    2.0568    1.2481    0.0000 H   0  0  0  0  0  0  0  0  0  0  0  0
    2.9948    0.4610    0.0000 H   0  0  0  0  0  0  0  0  0  0  0  0
   -0.0001    0.0000    0.0000 C   0  0  0  0  0  0  0  0  0  0  0  0
   -0.0001   -1.6000    0.0000 H   0  0  0  0  0  0  0  0  0  0  0  0
   -1.6000    0.0000    0.0000 C   0  0  0  0  0  0  0  0  0  0  0  0
   -1.8089    1.5864    0.0000 H   0  0  0  0  0  0  0  0  0  0  0  0
   -2.8694    0.9740    0.0000 H   0  0  0  0  0  0  0  0  0  0  0  0
   -2.4000   -1.3856    0.0000 C   0  0  0  0  0  0  0  0  0  0  0  0
   -1.0143   -2.1857    0.0000 H   0  0  0  0  0  0  0  0  0  0  0  0
   -3.2001   -2.7712    0.0000 C   0  0  0  0  0  0  0  0  0  0  0  0
   -3.9999   -4.1570    0.0000 H   0  0  0  0  0  0  0  0  0  0  0  0
   -4.7999   -2.7712    0.0000 H   0  0  0  0  0  0  0  0  0  0  0  0
   -2.4000   -4.1570    0.0000 H   0  0  0  0  0  0  0  0  0  0  0  0
   -3.7856   -0.5857    0.0000 C   0  0  0  0  0  0  0  0  0  0  0  0
   -5.1713    0.2144    0.0000 H   0  0  0  0  0  0  0  0  0  0  0  0
   -4.0635    0.9901    0.0000 H   0  0  0  0  0  0  0  0  0  0  0  0
   -5.1713   -1.3856    0.0000 H   0  0  0  0  0  0  0  0  0  0  0  0
   -0.0001    1.6000    0.0000 C   0  0  0  0  0  0  0  0  0  0  0  0
   -0.0001    3.2000    0.0000 H   0  0  0  0  0  0  0  0  0  0  0  0
   -1.2257    2.6284    0.0000 H   0  0  0  0  0  0  0  0  0  0  0  0
    1.3856    2.3999    0.0000 H   0  0  0  0  0  0  0  0  0  0  0  0
    2.6702   -3.2849    0.0000 O   0  0  0  0  0  0  0  0  0  0  0  0
    1.6417   -4.5105    0.0000 H   0  0  0  0  0  0  0  0  0  0  0  0
    5.0701    1.1079    0.0000 C   0  0  0  0  0  0  0  0  0  0  0  0
    5.6174    2.6113    0.0000 H   0  0  0  0  0  0  0  0  0  0  0  0
    6.6458    1.3856    0.0000 H   0  0  0  0  0  0  0  0  0  0  0  0
    4.0418    2.3335    0.0000 H   0  0  0  0  0  0  0  0  0  0  0  0
  1  2  1  0  0  0  0
  1  3  1  0  0  0  0
  1  4  1  0  0  0  0
  1  5  1  0  0  0  0
  5  6  1  0  0  0  0
  5  7  1  0  0  0  0
  7  8  1  0  0  0  0
  7  9  1  0  0  0  0
  7 10  1  0  0  0  0
 10 11  1  0  0  0  0
 10 12  1  0  0  0  0
 12 13  1  0  0  0  0
 12 14  1  0  0  0  0
 12 15  1  0  0  0  0
 15 16  1  0  0  0  0
 15 17  1  0  0  0  0
 17 18  1  0  0  0  0
 17 19  1  0  0  0  0
 17 20  1  0  0  0  0
 20 21  1  0  0  0  0
 20 22  1  0  0  0  0
 22 23  1  0  0  0  0
 22 24  1  0  0  0  0
 22 25  1  0  0  0  0
 20 26  1  0  0  0  0
 26 27  1  0  0  0  0
 26 28  1  0  0  0  0
 26 29  1  0  0  0  0
 15 30  1  0  0  0  0
 30 31  1  0  0  0  0
 30 32  1  0  0  0  0
 30 33  1  0  0  0  0
 10 34  1  0  0  0  0
 34 35  1  0  0  0  0
  5 36  1  0  0  0  0
 36 37  1  0  0  0  0
 36 38  1  0  0  0  0
 36 39  1  0  0  0  0
M  END
> <ChemID>
101335

> <source_casrn>
123-17-1

> <CAS>
123-17-1

> <SMILES>
CC(CC(C)C)CC(O)CC(C)C

> <NAME>
4-Nonanol, 2,6,8-trimethyl-

> <preferred_name>
2,6,8-Trimethyl-4-nonanol

> <iupac>
2,6,8-trimethylnonan-4-ol

> <MPID>
20399

> <dsstox_substance_id>
DTXSID8029159

> <Canonical_QSARr>
CC(CC(C)C)CC(O)CC(C)C

> <InChI_Code_QSARr>
InChI=1S/C12H26O/c1-9(2)6-11(5)8-12(13)7-10(3)4/h9-13H,6-8H2,1-5H3

> <InChI Key_QSARr>
LFEHSRSSAGQWNI-UHFFFAOYSA-N

> <Salt_Solvent>
?

> <BP>
225.4

$$$$
101339
  -INDIGO-08031720192D

 15 15  0  0  0  0  0  0  0  0999 V2000
    4.8001   -0.0000    0.0000 O   0  0  0  0  0  0  0  0  0  0  0  0
    5.6000    1.3856    0.0000 H   0  0  0  0  0  0  0  0  0  0  0  0
    3.2001   -0.0000    0.0000 C   0  0  0  0  0  0  0  0  0  0  0  0
    2.4000    1.3856    0.0000 C   0  0  0  0  0  0  0  0  0  0  0  0
    3.2001    2.7713    0.0000 H   0  0  0  0  0  0  0  0  0  0  0  0
    0.8000    1.3856    0.0000 C   0  0  0  0  0  0  0  0  0  0  0  0
    0.0001    2.7713    0.0000 H   0  0  0  0  0  0  0  0  0  0  0  0
    0.0001   -0.0000    0.0000 C   0  0  0  0  0  0  0  0  0  0  0  0
   -1.5999   -0.0000    0.0000 N   0  0  0  0  0  0  0  0  0  0  0  0
   -2.4000    1.3856    0.0000 H   0  0  0  0  0  0  0  0  0  0  0  0
   -2.4000   -1.3856    0.0000 H   0  0  0  0  0  0  0  0  0  0  0  0
    0.8000   -1.3856    0.0000 C   0  0  0  0  0  0  0  0  0  0  0  0
    0.0001   -2.7713    0.0000 H   0  0  0  0  0  0  0  0  0  0  0  0
    2.4000   -1.3856    0.0000 C   0  0  0  0  0  0  0  0  0  0  0  0
    3.2001   -2.7713    0.0000 H   0  0  0  0  0  0  0  0  0  0  0  0
  1  2  1  0  0  0  0
  1  3  1  0  0  0  0
  3  4  1  0  0  0  0
  4  5  1  0  0  0  0
  4  6  2  0  0  0  0
  6  7  1  0  0  0  0
  6  8  1  0  0  0  0
  8  9  1  0  0  0  0
  9 10  1  0  0  0  0
  9 11  1  0  0  0  0
  8 12  2  0  0  0  0
 12 13  1  0  0  0  0
 12 14  1  0  0  0  0
 14  3  2  0  0  0  0
 14 15  1  0  0  0  0
M  END
> <ChemID>
101339

> <source_casrn>
123-30-8

> <CAS>
123-30-8

> <SMILES>
Nc1ccc(O)cc1

> <NAME>
PHENOL, 4-AMINO-

> <preferred_name>
4-Aminophenol

> <iupac>
4-aminophenol

> <MPID>
20403

> <dsstox_substance_id>
DTXSID3024499

> <Canonical_QSARr>
Nc1ccc(O)cc1

> <InChI_Code_QSARr>
InChI=1S/C6H7NO/c7-5-1-3-6(8)4-2-5/h1-4,8H,7H2

> <InChI Key_QSARr>
PLIKAWJENQZMHA-UHFFFAOYSA-N

> <Salt_Solvent>
?

> <BP>
284.0

$$$$
101343
  -INDIGO-08031720192D

 10  9  0  0  0  0  0  0  0  0999 V2000
    1.3856    0.8000    0.0000 C   0  0  0  0  0  0  0  0  0  0  0  0
    2.7713    1.6000    0.0000 H   0  0  0  0  0  0  0  0  0  0  0  0
    2.7713    0.0000    0.0000 H   0  0  0  0  0  0  0  0  0  0  0  0
    1.3856    2.4000    0.0000 H   0  0  0  0  0  0  0  0  0  0  0  0
   -0.0000    0.0000    0.0000 C   0  0  0  0  0  0  0  0  0  0  0  0
    0.6123   -1.4782    0.0000 H   0  0  0  0  0  0  0  0  0  0  0  0
   -0.6123   -1.4782    0.0000 H   0  0  0  0  0  0  0  0  0  0  0  0
   -1.3856    0.8000    0.0000 C   0  0  0  0  0  0  0  0  0  0  0  0
   -2.7713    0.0000    0.0000 H   0  0  0  0  0  0  0  0  0  0  0  0
   -1.3856    2.4000    0.0000 O   0  0  0  0  0  0  0  0  0  0  0  0
  1  2  1  0  0  0  0
  1  3  1  0  0  0  0
  1  4  1  0  0  0  0
  1  5  1  0  0  0  0
  5  6  1  0  0  0  0
  5  7  1  0  0  0  0
  5  8  1  0  0  0  0
  8  9  1  0  0  0  0
  8 10  2  0  0  0  0
M  END
> <ChemID>
101343

> <source_casrn>
123-38-6

> <CAS>
123-38-6

> <SMILES>
CCC=O

> <NAME>
PROPIONALDEHYDE

> <preferred_name>
Propanal

> <iupac>
propanal

> <MPID>
20407

> <dsstox_substance_id>
DTXSID2021658

> <Canonical_QSARr>
CCC=O

> <InChI_Code_QSARr>
InChI=1S/C3H6O/c1-2-3-4/h3H,2H2,1H3

> <InChI Key_QSARr>
NBBJYMSMWIIQGU-UHFFFAOYSA-N

> <Salt_Solvent>
?

> <BP>
48.0

$$$$
101348
  -INDIGO-08031720192D

 12 12  0  0  0  0  0  0  0  0999 V2000
    2.0944    1.5217    0.0000 N   0  0  0  0  0  0  0  0  0  0  0  0
    3.0349    2.8161    0.0000 H   0  0  0  0  0  0  0  0  0  0  0  0
    2.5888   -0.0000    0.0000 C   0  0  0  0  0  0  0  0  0  0  0  0
    4.1105   -0.4945    0.0000 O   0  0  0  0  0  0  0  0  0  0  0  0
    1.2945   -0.9405    0.0000 C   0  0  0  0  0  0  0  0  0  0  0  0
    2.3650   -2.1295    0.0000 H   0  0  0  0  0  0  0  0  0  0  0  0
    0.2238   -2.1295    0.0000 H   0  0  0  0  0  0  0  0  0  0  0  0
    0.0000   -0.0000    0.0000 C   0  0  0  0  0  0  0  0  0  0  0  0
   -0.8000   -1.3856    0.0000 H   0  0  0  0  0  0  0  0  0  0  0  0
   -1.4617    0.6508    0.0000 H   0  0  0  0  0  0  0  0  0  0  0  0
    0.4944    1.5217    0.0000 C   0  0  0  0  0  0  0  0  0  0  0  0
   -0.4460    2.8161    0.0000 O   0  0  0  0  0  0  0  0  0  0  0  0
  1  2  1  0  0  0  0
  1  3  1  0  0  0  0
  3  4  2  0  0  0  0
  3  5  1  0  0  0  0
  5  6  1  0  0  0  0
  5  7  1  0  0  0  0
  5  8  1  0  0  0  0
  8  9  1  0  0  0  0
  8 10  1  0  0  0  0
  8 11  1  0  0  0  0
 11  1  1  0  0  0  0
 11 12  2  0  0  0  0
M  END
> <ChemID>
101348

> <source_casrn>
123-56-8

> <CAS>
123-56-8

> <SMILES>
O=C1CCC(=O)N1

> <NAME>
SUCCINIMIDE

> <preferred_name>
Succinimide

> <iupac>
pyrrolidine-2,5-dione

> <MPID>
20411

> <dsstox_substance_id>
DTXSID8051629

> <Canonical_QSARr>
O=C1CCC(=O)N1

> <InChI_Code_QSARr>
InChI=1S/C4H5NO2/c6-3-1-2-4(7)5-3/h1-2H2,(H,5,6,7)

> <InChI Key_QSARr>
KZNICNPSHKQLFF-UHFFFAOYSA-N

> <Salt_Solvent>
?

> <BP>
288.0

$$$$
101352
  -INDIGO-08031720192D

 27 26  0  0  0  0  0  0  0  0999 V2000
    4.1568    0.8000    0.0000 C   0  0  0  0  0  0  0  0  0  0  0  0
    4.1568    2.4000    0.0000 O   0  0  0  0  0  0  0  0  0  0  0  0
    5.5425    0.0000    0.0000 O   0  0  0  0  0  0  0  0  0  0  0  0
    6.9282    0.8000    0.0000 C   0  0  0  0  0  0  0  0  0  0  0  0
    6.3159    2.2782    0.0000 H   0  0  0  0  0  0  0  0  0  0  0  0
    7.5404    2.2782    0.0000 H   0  0  0  0  0  0  0  0  0  0  0  0
    8.3139    0.0000    0.0000 C   0  0  0  0  0  0  0  0  0  0  0  0
    8.3139   -1.6000    0.0000 H   0  0  0  0  0  0  0  0  0  0  0  0
    9.6994    0.8000    0.0000 C   0  0  0  0  0  0  0  0  0  0  0  0
   11.0851    0.0000    0.0000 H   0  0  0  0  0  0  0  0  0  0  0  0
    9.6994    2.4000    0.0000 H   0  0  0  0  0  0  0  0  0  0  0  0
    2.7714    0.0000    0.0000 C   0  0  0  0  0  0  0  0  0  0  0  0
    3.3835   -1.4782    0.0000 H   0  0  0  0  0  0  0  0  0  0  0  0
    2.1590   -1.4782    0.0000 H   0  0  0  0  0  0  0  0  0  0  0  0
    1.3857    0.8000    0.0000 C   0  0  0  0  0  0  0  0  0  0  0  0
    0.7733    2.2782    0.0000 H   0  0  0  0  0  0  0  0  0  0  0  0
    1.9980    2.2782    0.0000 H   0  0  0  0  0  0  0  0  0  0  0  0
   -0.0000    0.0000    0.0000 C   0  0  0  0  0  0  0  0  0  0  0  0
    0.6123   -1.4782    0.0000 H   0  0  0  0  0  0  0  0  0  0  0  0
   -0.6122   -1.4782    0.0000 H   0  0  0  0  0  0  0  0  0  0  0  0
   -1.3857    0.8000    0.0000 C   0  0  0  0  0  0  0  0  0  0  0  0
   -1.9979    2.2782    0.0000 H   0  0  0  0  0  0  0  0  0  0  0  0
   -0.7734    2.2782    0.0000 H   0  0  0  0  0  0  0  0  0  0  0  0
   -2.7712    0.0000    0.0000 C   0  0  0  0  0  0  0  0  0  0  0  0
   -4.1569   -0.8000    0.0000 H   0  0  0  0  0  0  0  0  0  0  0  0
   -4.1569    0.8000    0.0000 H   0  0  0  0  0  0  0  0  0  0  0  0
   -2.7712   -1.6000    0.0000 H   0  0  0  0  0  0  0  0  0  0  0  0
  1  2  2  0  0  0  0
  1  3  1  0  0  0  0
  3  4  1  0  0  0  0
  4  5  1  0  0  0  0
  4  6  1  0  0  0  0
  4  7  1  0  0  0  0
  7  8  1  0  0  0  0
  7  9  2  0  0  0  0
  9 10  1  0  0  0  0
  9 11  1  0  0  0  0
  1 12  1  0  0  0  0
 12 13  1  0  0  0  0
 12 14  1  0  0  0  0
 12 15  1  0  0  0  0
 15 16  1  0  0  0  0
 15 17  1  0  0  0  0
 15 18  1  0  0  0  0
 18 19  1  0  0  0  0
 18 20  1  0  0  0  0
 18 21  1  0  0  0  0
 21 22  1  0  0  0  0
 21 23  1  0  0  0  0
 21 24  1  0  0  0  0
 24 25  1  0  0  0  0
 24 26  1  0  0  0  0
 24 27  1  0  0  0  0
M  END
> <ChemID>
101352

> <source_casrn>
123-68-2

> <CAS>
123-68-2

> <SMILES>
CCCCCC(=O)OCC=C

> <NAME>
Allyl caproate

> <preferred_name>
Allyl hexanoate

> <iupac>
prop-2-en-1-yl hexanoate

> <MPID>
20415

> <dsstox_substance_id>
DTXSID1047653

> <Canonical_QSARr>
CCCCCC(=O)OCC=C

> <InChI_Code_QSARr>
InChI=1S/C9H16O2/c1-3-5-6-7-9(10)11-8-4-2/h4H,2-3,5-8H2,1H3

> <InChI Key_QSARr>
RCSBILYQLVXLJG-UHFFFAOYSA-N

> <Salt_Solvent>
?

> <BP>
186.0

$$$$
101356
  -INDIGO-08031720192D

 16 15  0  0  0  0  0  0  0  0999 V2000
    2.7713    0.0000    0.0000 C   0  0  0  0  0  0  0  0  0  0  0  0
    4.1569   -0.8000    0.0000 H   0  0  0  0  0  0  0  0  0  0  0  0
    4.1569    0.8000    0.0000 H   0  0  0  0  0  0  0  0  0  0  0  0
    2.7713   -1.6000    0.0000 H   0  0  0  0  0  0  0  0  0  0  0  0
    1.3857    0.8000    0.0000 C   0  0  0  0  0  0  0  0  0  0  0  0
    0.0001    0.0000    0.0000 C   0  0  0  0  0  0  0  0  0  0  0  0
   -0.6122   -1.4782    0.0000 H   0  0  0  0  0  0  0  0  0  0  0  0
    0.6124   -1.4782    0.0000 H   0  0  0  0  0  0  0  0  0  0  0  0
   -1.3857    0.8000    0.0000 C   0  0  0  0  0  0  0  0  0  0  0  0
   -0.7734    2.2782    0.0000 H   0  0  0  0  0  0  0  0  0  0  0  0
   -1.9980    2.2782    0.0000 H   0  0  0  0  0  0  0  0  0  0  0  0
   -2.7713    0.0000    0.0000 C   0  0  0  0  0  0  0  0  0  0  0  0
   -4.1569    0.8000    0.0000 O   0  0  0  0  0  0  0  0  0  0  0  0
   -5.5426    0.0000    0.0000 H   0  0  0  0  0  0  0  0  0  0  0  0
   -2.7713   -1.6000    0.0000 O   0  0  0  0  0  0  0  0  0  0  0  0
    1.3857    2.4000    0.0000 O   0  0  0  0  0  0  0  0  0  0  0  0
  1  2  1  0  0  0  0
  1  3  1  0  0  0  0
  1  4  1  0  0  0  0
  1  5  1  0  0  0  0
  5  6  1  0  0  0  0
  6  7  1  0  0  0  0
  6  8  1  0  0  0  0
  6  9  1  0  0  0  0
  9 10  1  0  0  0  0
  9 11  1  0  0  0  0
  9 12  1  0  0  0  0
 12 13  1  0  0  0  0
 13 14  1  0  0  0  0
 12 15  2  0  0  0  0
  5 16  2  0  0  0  0
M  END
> <ChemID>
101356

> <source_casrn>
123-76-2

> <CAS>
123-76-2

> <SMILES>
CC(=O)CCC(O)=O

> <NAME>
LEVULINIC ACID

> <preferred_name>
4-Oxopentanoic acid

> <iupac>
4-oxopentanoic acid

> <MPID>
20419

> <dsstox_substance_id>
DTXSID8021648

> <Canonical_QSARr>
CC(=O)CCC(O)=O

> <InChI_Code_QSARr>
InChI=1S/C5H8O3/c1-4(6)2-3-5(7)8/h2-3H2,1H3,(H,7,8)

> <InChI Key_QSARr>
JOOXCMJARBKPKM-UHFFFAOYSA-N

> <Salt_Solvent>
?

> <BP>
245.5

$$$$
101360
  -INDIGO-08031720192D

 20 19  0  0  0  0  0  0  0  0999 V2000
    5.5425    0.0000    0.0000 C   0  0  0  0  0  0  0  0  0  0  0  0
    6.9282   -0.8000    0.0000 H   0  0  0  0  0  0  0  0  0  0  0  0
    6.9282    0.8000    0.0000 H   0  0  0  0  0  0  0  0  0  0  0  0
    5.5425   -1.6000    0.0000 H   0  0  0  0  0  0  0  0  0  0  0  0
    4.1569    0.8000    0.0000 C   0  0  0  0  0  0  0  0  0  0  0  0
    4.1569    2.4000    0.0000 O   0  0  0  0  0  0  0  0  0  0  0  0
    2.7712    0.0000    0.0000 O   0  0  0  0  0  0  0  0  0  0  0  0
    1.3857    0.8000    0.0000 C   0  0  0  0  0  0  0  0  0  0  0  0
    1.9979    2.2782    0.0000 H   0  0  0  0  0  0  0  0  0  0  0  0
    0.7734    2.2782    0.0000 H   0  0  0  0  0  0  0  0  0  0  0  0
    0.0001    0.0000    0.0000 C   0  0  0  0  0  0  0  0  0  0  0  0
   -0.6123   -1.4782    0.0000 H   0  0  0  0  0  0  0  0  0  0  0  0
    0.6122   -1.4782    0.0000 H   0  0  0  0  0  0  0  0  0  0  0  0
   -1.3856    0.8000    0.0000 C   0  0  0  0  0  0  0  0  0  0  0  0
   -0.7733    2.2782    0.0000 H   0  0  0  0  0  0  0  0  0  0  0  0
   -1.9979    2.2782    0.0000 H   0  0  0  0  0  0  0  0  0  0  0  0
   -2.7713    0.0000    0.0000 C   0  0  0  0  0  0  0  0  0  0  0  0
   -4.1569   -0.8000    0.0000 H   0  0  0  0  0  0  0  0  0  0  0  0
   -4.1569    0.8000    0.0000 H   0  0  0  0  0  0  0  0  0  0  0  0
   -2.7713   -1.6000    0.0000 H   0  0  0  0  0  0  0  0  0  0  0  0
  1  2  1  0  0  0  0
  1  3  1  0  0  0  0
  1  4  1  0  0  0  0
  1  5  1  0  0  0  0
  5  6  2  0  0  0  0
  5  7  1  0  0  0  0
  7  8  1  0  0  0  0
  8  9  1  0  0  0  0
  8 10  1  0  0  0  0
  8 11  1  0  0  0  0
 11 12  1  0  0  0  0
 11 13  1  0  0  0  0
 11 14  1  0  0  0  0
 14 15  1  0  0  0  0
 14 16  1  0  0  0  0
 14 17  1  0  0  0  0
 17 18  1  0  0  0  0
 17 19  1  0  0  0  0
 17 20  1  0  0  0  0
M  END
> <ChemID>
101360

> <source_casrn>
123-86-4

> <CAS>
123-86-4

> <SMILES>
CCCCOC(C)=O

> <NAME>
N-BUTYL ACETATE

> <preferred_name>
Butyl acetate

> <iupac>
butyl acetate

> <MPID>
20423

> <dsstox_substance_id>
DTXSID3021982

> <Canonical_QSARr>
CCCCOC(C)=O

> <InChI_Code_QSARr>
InChI=1S/C6H12O2/c1-3-4-5-8-6(2)7/h3-5H2,1-2H3

> <InChI Key_QSARr>
DKPFZGUDAPQIHT-UHFFFAOYSA-N

> <Salt_Solvent>
?

> <BP>
126.1

$$$$
101364
  -INDIGO-08031720192D

 68 67  0  0  0  0  0  0  0  0999 V2000
  -11.0850    0.0000    0.0000 C   0  0  0  0  0  0  0  0  0  0  0  0
   -9.6997   -0.8000    0.0000 C   0  0  0  0  0  0  0  0  0  0  0  0
   -9.0872   -2.2782    0.0000 H   0  0  0  0  0  0  0  0  0  0  0  0
  -10.3117   -2.2782    0.0000 H   0  0  0  0  0  0  0  0  0  0  0  0
   -8.3138    0.0000    0.0000 C   0  0  0  0  0  0  0  0  0  0  0  0
   -8.9263    1.4782    0.0000 H   0  0  0  0  0  0  0  0  0  0  0  0
   -7.7014    1.4782    0.0000 H   0  0  0  0  0  0  0  0  0  0  0  0
   -6.9280   -0.8000    0.0000 C   0  0  0  0  0  0  0  0  0  0  0  0
   -6.3160   -2.2782    0.0000 H   0  0  0  0  0  0  0  0  0  0  0  0
   -7.5405   -2.2782    0.0000 H   0  0  0  0  0  0  0  0  0  0  0  0
   -5.5427    0.0000    0.0000 C   0  0  0  0  0  0  0  0  0  0  0  0
   -6.1547    1.4782    0.0000 H   0  0  0  0  0  0  0  0  0  0  0  0
   -4.9302    1.4782    0.0000 H   0  0  0  0  0  0  0  0  0  0  0  0
   -4.1569   -0.8000    0.0000 C   0  0  0  0  0  0  0  0  0  0  0  0
   -3.5449   -2.2782    0.0000 H   0  0  0  0  0  0  0  0  0  0  0  0
   -4.7693   -2.2782    0.0000 H   0  0  0  0  0  0  0  0  0  0  0  0
   -2.7710    0.0000    0.0000 C   0  0  0  0  0  0  0  0  0  0  0  0
   -3.3835    1.4782    0.0000 H   0  0  0  0  0  0  0  0  0  0  0  0
   -2.1590    1.4782    0.0000 H   0  0  0  0  0  0  0  0  0  0  0  0
   -1.3857   -0.8000    0.0000 C   0  0  0  0  0  0  0  0  0  0  0  0
   -0.7732   -2.2782    0.0000 H   0  0  0  0  0  0  0  0  0  0  0  0
   -1.9977   -2.2782    0.0000 H   0  0  0  0  0  0  0  0  0  0  0  0
    0.0001    0.0000    0.0000 C   0  0  0  0  0  0  0  0  0  0  0  0
   -0.6124    1.4782    0.0000 H   0  0  0  0  0  0  0  0  0  0  0  0
    0.6121    1.4782    0.0000 H   0  0  0  0  0  0  0  0  0  0  0  0
    1.3855   -0.8000    0.0000 C   0  0  0  0  0  0  0  0  0  0  0  0
    1.9979   -2.2782    0.0000 H   0  0  0  0  0  0  0  0  0  0  0  0
    0.7735   -2.2782    0.0000 H   0  0  0  0  0  0  0  0  0  0  0  0
    2.7713    0.0000    0.0000 C   0  0  0  0  0  0  0  0  0  0  0  0
    2.1588    1.4782    0.0000 H   0  0  0  0  0  0  0  0  0  0  0  0
    3.3838    1.4782    0.0000 H   0  0  0  0  0  0  0  0  0  0  0  0
    4.1571   -0.8000    0.0000 C   0  0  0  0  0  0  0  0  0  0  0  0
    4.7691   -2.2782    0.0000 H   0  0  0  0  0  0  0  0  0  0  0  0
    3.5446   -2.2782    0.0000 H   0  0  0  0  0  0  0  0  0  0  0  0
    5.5424    0.0000    0.0000 C   0  0  0  0  0  0  0  0  0  0  0  0
    4.9305    1.4782    0.0000 H   0  0  0  0  0  0  0  0  0  0  0  0
    6.1549    1.4782    0.0000 H   0  0  0  0  0  0  0  0  0  0  0  0
    6.9283   -0.8000    0.0000 C   0  0  0  0  0  0  0  0  0  0  0  0
    7.5402   -2.2782    0.0000 H   0  0  0  0  0  0  0  0  0  0  0  0
    6.3158   -2.2782    0.0000 H   0  0  0  0  0  0  0  0  0  0  0  0
    8.3141    0.0000    0.0000 C   0  0  0  0  0  0  0  0  0  0  0  0
    7.7016    1.4782    0.0000 H   0  0  0  0  0  0  0  0  0  0  0  0
    8.9261    1.4782    0.0000 H   0  0  0  0  0  0  0  0  0  0  0  0
    9.6994   -0.8000    0.0000 C   0  0  0  0  0  0  0  0  0  0  0  0
   10.3119   -2.2782    0.0000 H   0  0  0  0  0  0  0  0  0  0  0  0
    9.0874   -2.2782    0.0000 H   0  0  0  0  0  0  0  0  0  0  0  0
   11.0853    0.0000    0.0000 C   0  0  0  0  0  0  0  0  0  0  0  0
   10.4728    1.4782    0.0000 H   0  0  0  0  0  0  0  0  0  0  0  0
   11.6972    1.4782    0.0000 H   0  0  0  0  0  0  0  0  0  0  0  0
   12.4706   -0.8000    0.0000 C   0  0  0  0  0  0  0  0  0  0  0  0
   13.8564   -1.6000    0.0000 H   0  0  0  0  0  0  0  0  0  0  0  0
   13.8564    0.0000    0.0000 H   0  0  0  0  0  0  0  0  0  0  0  0
   12.4706   -2.4000    0.0000 H   0  0  0  0  0  0  0  0  0  0  0  0
  -12.4708   -0.8000    0.0000 O   0  0  0  0  0  0  0  0  0  0  0  0
  -13.8567    0.0000    0.0000 C   0  0  0  0  0  0  0  0  0  0  0  0
  -14.4686    1.4782    0.0000 H   0  0  0  0  0  0  0  0  0  0  0  0
  -13.2442    1.4782    0.0000 H   0  0  0  0  0  0  0  0  0  0  0  0
  -15.2420   -0.8000    0.0000 C   0  0  0  0  0  0  0  0  0  0  0  0
  -14.6300   -2.2782    0.0000 H   0  0  0  0  0  0  0  0  0  0  0  0
  -15.8545   -2.2782    0.0000 H   0  0  0  0  0  0  0  0  0  0  0  0
  -16.6278    0.0000    0.0000 C   0  0  0  0  0  0  0  0  0  0  0  0
  -17.2398    1.4782    0.0000 H   0  0  0  0  0  0  0  0  0  0  0  0
  -16.0153    1.4782    0.0000 H   0  0  0  0  0  0  0  0  0  0  0  0
  -18.0131   -0.8000    0.0000 C   0  0  0  0  0  0  0  0  0  0  0  0
  -19.3990   -1.6000    0.0000 H   0  0  0  0  0  0  0  0  0  0  0  0
  -19.3990    0.0000    0.0000 H   0  0  0  0  0  0  0  0  0  0  0  0
  -18.0131   -2.4000    0.0000 H   0  0  0  0  0  0  0  0  0  0  0  0
  -11.0850    1.6000    0.0000 O   0  0  0  0  0  0  0  0  0  0  0  0
  1  2  1  0  0  0  0
  2  3  1  0  0  0  0
  2  4  1  0  0  0  0
  2  5  1  0  0  0  0
  5  6  1  0  0  0  0
  5  7  1  0  0  0  0
  5  8  1  0  0  0  0
  8  9  1  0  0  0  0
  8 10  1  0  0  0  0
  8 11  1  0  0  0  0
 11 12  1  0  0  0  0
 11 13  1  0  0  0  0
 11 14  1  0  0  0  0
 14 15  1  0  0  0  0
 14 16  1  0  0  0  0
 14 17  1  0  0  0  0
 17 18  1  0  0  0  0
 17 19  1  0  0  0  0
 17 20  1  0  0  0  0
 20 21  1  0  0  0  0
 20 22  1  0  0  0  0
 20 23  1  0  0  0  0
 23 24  1  0  0  0  0
 23 25  1  0  0  0  0
 23 26  1  0  0  0  0
 26 27  1  0  0  0  0
 26 28  1  0  0  0  0
 26 29  1  0  0  0  0
 29 30  1  0  0  0  0
 29 31  1  0  0  0  0
 29 32  1  0  0  0  0
 32 33  1  0  0  0  0
 32 34  1  0  0  0  0
 32 35  1  0  0  0  0
 35 36  1  0  0  0  0
 35 37  1  0  0  0  0
 35 38  1  0  0  0  0
 38 39  1  0  0  0  0
 38 40  1  0  0  0  0
 38 41  1  0  0  0  0
 41 42  1  0  0  0  0
 41 43  1  0  0  0  0
 41 44  1  0  0  0  0
 44 45  1  0  0  0  0
 44 46  1  0  0  0  0
 44 47  1  0  0  0  0
 47 48  1  0  0  0  0
 47 49  1  0  0  0  0
 47 50  1  0  0  0  0
 50 51  1  0  0  0  0
 50 52  1  0  0  0  0
 50 53  1  0  0  0  0
  1 54  1  0  0  0  0
 54 55  1  0  0  0  0
 55 56  1  0  0  0  0
 55 57  1  0  0  0  0
 55 58  1  0  0  0  0
 58 59  1  0  0  0  0
 58 60  1  0  0  0  0
 58 61  1  0  0  0  0
 61 62  1  0  0  0  0
 61 63  1  0  0  0  0
 61 64  1  0  0  0  0
 64 65  1  0  0  0  0
 64 66  1  0  0  0  0
 64 67  1  0  0  0  0
  1 68  2  0  0  0  0
M  END
> <ChemID>
101364

> <source_casrn>
123-95-5

> <CAS>
123-95-5

> <SMILES>
CCCCCCCCCCCCCCCCCC(=O)OCCCC

> <NAME>
N-BUTYL STEARATE

> <preferred_name>
Octadecanoic acid, butyl ester

> <iupac>
butyl octadecanoate

> <MPID>
20427

> <dsstox_substance_id>
DTXSID5027013

> <Canonical_QSARr>
CCCCCCCCCCCCCCCCCC(=O)OCCCC

> <InChI_Code_QSARr>
InChI=1S/C22H44O2/c1-3-5-7-8-9-10-11-12-13-14-15-16-17-18-19-20-22(23)24-21-6-4-2/h3-21H2,1-2H3

> <InChI Key_QSARr>
ULBTUVJTXULMLP-UHFFFAOYSA-N

> <Salt_Solvent>
?

> <BP>
343.0

$$$$
101368
  -INDIGO-08031720192D

 14 13  0  0  0  0  0  0  0  0999 V2000
    0.0001    0.0000    0.0000 C   0  0  0  0  0  0  0  0  0  0  0  0
    0.6124    1.4782    0.0000 H   0  0  0  0  0  0  0  0  0  0  0  0
   -0.6122    1.4782    0.0000 H   0  0  0  0  0  0  0  0  0  0  0  0
   -1.3857   -0.8000    0.0000 C   0  0  0  0  0  0  0  0  0  0  0  0
   -1.9980   -2.2782    0.0000 H   0  0  0  0  0  0  0  0  0  0  0  0
   -0.7734   -2.2782    0.0000 H   0  0  0  0  0  0  0  0  0  0  0  0
   -2.7713    0.0000    0.0000 O   0  0  0  0  0  0  0  0  0  0  0  0
   -4.1569   -0.8000    0.0000 C   0  0  0  0  0  0  0  0  0  0  0  0
   -5.5426    0.0000    0.0000 O   0  0  0  0  0  0  0  0  0  0  0  0
   -4.1569   -2.4000    0.0000 Cl  0  0  0  0  0  0  0  0  0  0  0  0
    1.3857   -0.8000    0.0000 O   0  0  0  0  0  0  0  0  0  0  0  0
    2.7713    0.0000    0.0000 C   0  0  0  0  0  0  0  0  0  0  0  0
    4.1569   -0.8000    0.0000 O   0  0  0  0  0  0  0  0  0  0  0  0
    2.7713    1.6000    0.0000 Cl  0  0  0  0  0  0  0  0  0  0  0  0
  1  2  1  0  0  0  0
  1  3  1  0  0  0  0
  1  4  1  0  0  0  0
  4  5  1  0  0  0  0
  4  6  1  0  0  0  0
  4  7  1  0  0  0  0
  7  8  1  0  0  0  0
  8  9  2  0  0  0  0
  8 10  1  0  0  0  0
  1 11  1  0  0  0  0
 11 12  1  0  0  0  0
 12 13  2  0  0  0  0
 12 14  1  0  0  0  0
M  END
> <ChemID>
101368

> <source_casrn>
124-05-0

> <CAS>
124-05-0

> <SMILES>
O=C(Cl)OCCOC(=O)Cl

> <NAME>
Ethylene bis chloroformate

> <preferred_name>
1,2-Bis((chlorocarbonyl)oxy)ethane

> <iupac>
ethane-1,2-diyl dicarbonochloridate

> <MPID>
20431

> <dsstox_substance_id>
DTXSID2051631

> <Canonical_QSARr>
O=C(Cl)OCCOC(=O)Cl

> <InChI_Code_QSARr>
InChI=1S/C4H4Cl2O4/c5-3(7)9-1-2-10-4(6)8/h1-2H2

> <InChI Key_QSARr>
FMACOGSACRRIMK-UHFFFAOYSA-N

> <Salt_Solvent>
?

> <BP>
183.0

$$$$
101372
  -INDIGO-08031720192D

 47 46  0  0  0  0  0  0  0  0999 V2000
   -9.6995    0.8000    0.0000 C   0  0  0  0  0  0  0  0  0  0  0  0
   -8.3138    0.0000    0.0000 C   0  0  0  0  0  0  0  0  0  0  0  0
   -8.9260   -1.4782    0.0000 H   0  0  0  0  0  0  0  0  0  0  0  0
   -7.7017   -1.4782    0.0000 H   0  0  0  0  0  0  0  0  0  0  0  0
   -6.9282    0.8000    0.0000 C   0  0  0  0  0  0  0  0  0  0  0  0
   -6.3161    2.2782    0.0000 H   0  0  0  0  0  0  0  0  0  0  0  0
   -7.5403    2.2782    0.0000 H   0  0  0  0  0  0  0  0  0  0  0  0
   -5.5426    0.0000    0.0000 C   0  0  0  0  0  0  0  0  0  0  0  0
   -6.1547   -1.4782    0.0000 H   0  0  0  0  0  0  0  0  0  0  0  0
   -4.9304   -1.4782    0.0000 H   0  0  0  0  0  0  0  0  0  0  0  0
   -4.1569    0.8000    0.0000 C   0  0  0  0  0  0  0  0  0  0  0  0
   -3.5448    2.2782    0.0000 H   0  0  0  0  0  0  0  0  0  0  0  0
   -4.7690    2.2782    0.0000 H   0  0  0  0  0  0  0  0  0  0  0  0
   -2.7713    0.0000    0.0000 C   0  0  0  0  0  0  0  0  0  0  0  0
   -3.3834   -1.4782    0.0000 H   0  0  0  0  0  0  0  0  0  0  0  0
   -2.1592   -1.4782    0.0000 H   0  0  0  0  0  0  0  0  0  0  0  0
   -1.3856    0.8000    0.0000 C   0  0  0  0  0  0  0  0  0  0  0  0
   -0.7735    2.2782    0.0000 H   0  0  0  0  0  0  0  0  0  0  0  0
   -1.9978    2.2782    0.0000 H   0  0  0  0  0  0  0  0  0  0  0  0
    0.0000    0.0000    0.0000 C   0  0  0  0  0  0  0  0  0  0  0  0
   -0.6121   -1.4782    0.0000 H   0  0  0  0  0  0  0  0  0  0  0  0
    0.6121   -1.4782    0.0000 H   0  0  0  0  0  0  0  0  0  0  0  0
    1.3856    0.8000    0.0000 C   0  0  0  0  0  0  0  0  0  0  0  0
    1.9978    2.2782    0.0000 H   0  0  0  0  0  0  0  0  0  0  0  0
    0.7735    2.2782    0.0000 H   0  0  0  0  0  0  0  0  0  0  0  0
    2.7713    0.0000    0.0000 C   0  0  0  0  0  0  0  0  0  0  0  0
    2.1592   -1.4782    0.0000 H   0  0  0  0  0  0  0  0  0  0  0  0
    3.3834   -1.4782    0.0000 H   0  0  0  0  0  0  0  0  0  0  0  0
    4.1569    0.8000    0.0000 C   0  0  0  0  0  0  0  0  0  0  0  0
    4.7690    2.2782    0.0000 H   0  0  0  0  0  0  0  0  0  0  0  0
    3.5448    2.2782    0.0000 H   0  0  0  0  0  0  0  0  0  0  0  0
    5.5426    0.0000    0.0000 C   0  0  0  0  0  0  0  0  0  0  0  0
    4.9304   -1.4782    0.0000 H   0  0  0  0  0  0  0  0  0  0  0  0
    6.1547   -1.4782    0.0000 H   0  0  0  0  0  0  0  0  0  0  0  0
    6.9282    0.8000    0.0000 C   0  0  0  0  0  0  0  0  0  0  0  0
    7.5403    2.2782    0.0000 H   0  0  0  0  0  0  0  0  0  0  0  0
    6.3161    2.2782    0.0000 H   0  0  0  0  0  0  0  0  0  0  0  0
    8.3138    0.0000    0.0000 C   0  0  0  0  0  0  0  0  0  0  0  0
    9.6995   -0.8000    0.0000 H   0  0  0  0  0  0  0  0  0  0  0  0
    9.6995    0.8000    0.0000 H   0  0  0  0  0  0  0  0  0  0  0  0
    8.3138   -1.6000    0.0000 H   0  0  0  0  0  0  0  0  0  0  0  0
  -11.0851    0.0000    0.0000 O   0  0  0  0  0  0  0  0  0  0  0  0
  -12.4708    0.8000    0.0000 C   0  0  0  0  0  0  0  0  0  0  0  0
  -13.8564    1.6000    0.0000 H   0  0  0  0  0  0  0  0  0  0  0  0
  -13.8564    0.0000    0.0000 H   0  0  0  0  0  0  0  0  0  0  0  0
  -12.4708    2.4000    0.0000 H   0  0  0  0  0  0  0  0  0  0  0  0
   -9.6995    2.4000    0.0000 O   0  0  0  0  0  0  0  0  0  0  0  0
  1  2  1  0  0  0  0
  2  3  1  0  0  0  0
  2  4  1  0  0  0  0
  2  5  1  0  0  0  0
  5  6  1  0  0  0  0
  5  7  1  0  0  0  0
  5  8  1  0  0  0  0
  8  9  1  0  0  0  0
  8 10  1  0  0  0  0
  8 11  1  0  0  0  0
 11 12  1  0  0  0  0
 11 13  1  0  0  0  0
 11 14  1  0  0  0  0
 14 15  1  0  0  0  0
 14 16  1  0  0  0  0
 14 17  1  0  0  0  0
 17 18  1  0  0  0  0
 17 19  1  0  0  0  0
 17 20  1  0  0  0  0
 20 21  1  0  0  0  0
 20 22  1  0  0  0  0
 20 23  1  0  0  0  0
 23 24  1  0  0  0  0
 23 25  1  0  0  0  0
 23 26  1  0  0  0  0
 26 27  1  0  0  0  0
 26 28  1  0  0  0  0
 26 29  1  0  0  0  0
 29 30  1  0  0  0  0
 29 31  1  0  0  0  0
 29 32  1  0  0  0  0
 32 33  1  0  0  0  0
 32 34  1  0  0  0  0
 32 35  1  0  0  0  0
 35 36  1  0  0  0  0
 35 37  1  0  0  0  0
 35 38  1  0  0  0  0
 38 39  1  0  0  0  0
 38 40  1  0  0  0  0
 38 41  1  0  0  0  0
  1 42  1  0  0  0  0
 42 43  1  0  0  0  0
 43 44  1  0  0  0  0
 43 45  1  0  0  0  0
 43 46  1  0  0  0  0
  1 47  2  0  0  0  0
M  END
> <ChemID>
101372

> <source_casrn>
124-10-7

> <CAS>
124-10-7

> <SMILES>
CCCCCCCCCCCCCC(=O)OC

> <NAME>
METHYL MYRISTATE

> <preferred_name>
Methyl tetradecanoate

> <iupac>
methyl tetradecanoate

> <MPID>
20435

> <dsstox_substance_id>
DTXSID5027019

> <Canonical_QSARr>
CCCCCCCCCCCCCC(=O)OC

> <InChI_Code_QSARr>
InChI=1S/C15H30O2/c1-3-4-5-6-7-8-9-10-11-12-13-14-15(16)17-2/h3-14H2,1-2H3

> <InChI Key_QSARr>
ZAZKJZBWRNNLDS-UHFFFAOYSA-N

> <Salt_Solvent>
?

> <BP>
295.0

$$$$
101376
  -INDIGO-08031720192D

 32 31  0  0  0  0  0  0  0  0999 V2000
   -8.3138    0.0000    0.0000 C   0  0  0  0  0  0  0  0  0  0  0  0
   -7.7015   -1.4782    0.0000 H   0  0  0  0  0  0  0  0  0  0  0  0
   -8.9260   -1.4782    0.0000 H   0  0  0  0  0  0  0  0  0  0  0  0
   -9.6994    0.8000    0.0000 C   0  0  0  0  0  0  0  0  0  0  0  0
   -8.8994    2.1857    0.0000 H   0  0  0  0  0  0  0  0  0  0  0  0
  -11.0852    1.6000    0.0000 C   0  0  0  0  0  0  0  0  0  0  0  0
  -12.4708    2.4000    0.0000 H   0  0  0  0  0  0  0  0  0  0  0  0
  -12.4708    0.8000    0.0000 H   0  0  0  0  0  0  0  0  0  0  0  0
  -11.0852    3.2000    0.0000 H   0  0  0  0  0  0  0  0  0  0  0  0
  -10.4996   -0.5857    0.0000 O   0  0  0  0  0  0  0  0  0  0  0  0
  -12.0996   -0.5857    0.0000 H   0  0  0  0  0  0  0  0  0  0  0  0
   -6.9282    0.8000    0.0000 O   0  0  0  0  0  0  0  0  0  0  0  0
   -5.5426    0.0000    0.0000 C   0  0  0  0  0  0  0  0  0  0  0  0
   -4.9304   -1.4782    0.0000 H   0  0  0  0  0  0  0  0  0  0  0  0
   -6.1549   -1.4782    0.0000 H   0  0  0  0  0  0  0  0  0  0  0  0
   -4.1568    0.8000    0.0000 C   0  0  0  0  0  0  0  0  0  0  0  0
   -4.7693    2.2782    0.0000 H   0  0  0  0  0  0  0  0  0  0  0  0
   -3.5446    2.2782    0.0000 H   0  0  0  0  0  0  0  0  0  0  0  0
   -2.7712    0.0000    0.0000 O   0  0  0  0  0  0  0  0  0  0  0  0
   -1.3856    0.8000    0.0000 C   0  0  0  0  0  0  0  0  0  0  0  0
   -1.9979    2.2782    0.0000 H   0  0  0  0  0  0  0  0  0  0  0  0
   -0.7734    2.2782    0.0000 H   0  0  0  0  0  0  0  0  0  0  0  0
   -0.0001    0.0000    0.0000 C   0  0  0  0  0  0  0  0  0  0  0  0
    0.6122   -1.4782    0.0000 H   0  0  0  0  0  0  0  0  0  0  0  0
   -0.6123   -1.4782    0.0000 H   0  0  0  0  0  0  0  0  0  0  0  0
    1.3858    0.8000    0.0000 C   0  0  0  0  0  0  0  0  0  0  0  0
    0.7733    2.2782    0.0000 H   0  0  0  0  0  0  0  0  0  0  0  0
    1.9980    2.2782    0.0000 H   0  0  0  0  0  0  0  0  0  0  0  0
    2.7713    0.0000    0.0000 C   0  0  0  0  0  0  0  0  0  0  0  0
    4.1569   -0.8000    0.0000 H   0  0  0  0  0  0  0  0  0  0  0  0
    4.1569    0.8000    0.0000 H   0  0  0  0  0  0  0  0  0  0  0  0
    2.7713   -1.6000    0.0000 H   0  0  0  0  0  0  0  0  0  0  0  0
  1  2  1  0  0  0  0
  1  3  1  0  0  0  0
  1  4  1  0  0  0  0
  4  5  1  0  0  0  0
  4  6  1  0  0  0  0
  6  7  1  0  0  0  0
  6  8  1  0  0  0  0
  6  9  1  0  0  0  0
  4 10  1  0  0  0  0
 10 11  1  0  0  0  0
  1 12  1  0  0  0  0
 12 13  1  0  0  0  0
 13 14  1  0  0  0  0
 13 15  1  0  0  0  0
 13 16  1  0  0  0  0
 16 17  1  0  0  0  0
 16 18  1  0  0  0  0
 16 19  1  0  0  0  0
 19 20  1  0  0  0  0
 20 21  1  0  0  0  0
 20 22  1  0  0  0  0
 20 23  1  0  0  0  0
 23 24  1  0  0  0  0
 23 25  1  0  0  0  0
 23 26  1  0  0  0  0
 26 27  1  0  0  0  0
 26 28  1  0  0  0  0
 26 29  1  0  0  0  0
 29 30  1  0  0  0  0
 29 31  1  0  0  0  0
 29 32  1  0  0  0  0
M  END
> <ChemID>
101376

> <source_casrn>
124-16-3

> <CAS>
124-16-3

> <SMILES>
CCCCOCCOCC(C)O

> <NAME>
1-(2-Butoxyethoxy)-2-propanol

> <preferred_name>
1-(2-Butoxyethoxy)-2-propanol

> <iupac>
1-(2-butoxyethoxy)propan-2-ol

> <MPID>
20439

> <dsstox_substance_id>
DTXSID1041213

> <Canonical_QSARr>
CCCCOCCOCC(C)O

> <InChI_Code_QSARr>
InChI=1S/C9H20O3/c1-3-4-5-11-6-7-12-8-9(2)10/h9-10H,3-8H2,1-2H3

> <InChI Key_QSARr>
NPMRPDRLIHYOBW-UHFFFAOYSA-N

> <Salt_Solvent>
?

> <BP>
230.0

$$$$
101380
  -INDIGO-08031720192D

 40 39  0  0  0  0  0  0  0  0999 V2000
    8.3139   -0.0000    0.0000 C   0  0  0  0  0  0  0  0  0  0  0  0
    9.6995   -0.8000    0.0000 H   0  0  0  0  0  0  0  0  0  0  0  0
    9.6995    0.8000    0.0000 H   0  0  0  0  0  0  0  0  0  0  0  0
    8.3139   -1.6000    0.0000 H   0  0  0  0  0  0  0  0  0  0  0  0
    6.9282    0.8000    0.0000 C   0  0  0  0  0  0  0  0  0  0  0  0
    6.3158    2.2782    0.0000 H   0  0  0  0  0  0  0  0  0  0  0  0
    7.5404    2.2782    0.0000 H   0  0  0  0  0  0  0  0  0  0  0  0
    5.5426   -0.0000    0.0000 C   0  0  0  0  0  0  0  0  0  0  0  0
    6.1548   -1.4782    0.0000 H   0  0  0  0  0  0  0  0  0  0  0  0
    4.9302   -1.4782    0.0000 H   0  0  0  0  0  0  0  0  0  0  0  0
    4.1570    0.8000    0.0000 C   0  0  0  0  0  0  0  0  0  0  0  0
    3.5446    2.2782    0.0000 H   0  0  0  0  0  0  0  0  0  0  0  0
    4.7692    2.2782    0.0000 H   0  0  0  0  0  0  0  0  0  0  0  0
    2.7714   -0.0000    0.0000 C   0  0  0  0  0  0  0  0  0  0  0  0
    3.3835   -1.4782    0.0000 H   0  0  0  0  0  0  0  0  0  0  0  0
    2.1589   -1.4782    0.0000 H   0  0  0  0  0  0  0  0  0  0  0  0
    1.3858    0.8000    0.0000 C   0  0  0  0  0  0  0  0  0  0  0  0
    0.7733    2.2782    0.0000 H   0  0  0  0  0  0  0  0  0  0  0  0
    1.9979    2.2782    0.0000 H   0  0  0  0  0  0  0  0  0  0  0  0
    0.0001   -0.0000    0.0000 C   0  0  0  0  0  0  0  0  0  0  0  0
    0.6123   -1.4782    0.0000 H   0  0  0  0  0  0  0  0  0  0  0  0
   -0.6123   -1.4782    0.0000 H   0  0  0  0  0  0  0  0  0  0  0  0
   -1.3858    0.8000    0.0000 C   0  0  0  0  0  0  0  0  0  0  0  0
   -1.9979    2.2782    0.0000 H   0  0  0  0  0  0  0  0  0  0  0  0
   -0.7733    2.2782    0.0000 H   0  0  0  0  0  0  0  0  0  0  0  0
   -2.7714   -0.0000    0.0000 C   0  0  0  0  0  0  0  0  0  0  0  0
   -2.1589   -1.4782    0.0000 H   0  0  0  0  0  0  0  0  0  0  0  0
   -3.3835   -1.4782    0.0000 H   0  0  0  0  0  0  0  0  0  0  0  0
   -4.1570    0.8000    0.0000 C   0  0  0  0  0  0  0  0  0  0  0  0
   -4.7692    2.2782    0.0000 H   0  0  0  0  0  0  0  0  0  0  0  0
   -3.5446    2.2782    0.0000 H   0  0  0  0  0  0  0  0  0  0  0  0
   -5.5426   -0.0000    0.0000 C   0  0  0  0  0  0  0  0  0  0  0  0
   -4.9302   -1.4782    0.0000 H   0  0  0  0  0  0  0  0  0  0  0  0
   -6.1548   -1.4782    0.0000 H   0  0  0  0  0  0  0  0  0  0  0  0
   -6.9282    0.8000    0.0000 C   0  0  0  0  0  0  0  0  0  0  0  0
   -7.5404    2.2782    0.0000 H   0  0  0  0  0  0  0  0  0  0  0  0
   -6.3158    2.2782    0.0000 H   0  0  0  0  0  0  0  0  0  0  0  0
   -8.3139   -0.0000    0.0000 N   0  0  0  0  0  0  0  0  0  0  0  0
   -9.6995    0.8000    0.0000 H   0  0  0  0  0  0  0  0  0  0  0  0
   -8.3139   -1.6000    0.0000 H   0  0  0  0  0  0  0  0  0  0  0  0
  1  2  1  0  0  0  0
  1  3  1  0  0  0  0
  1  4  1  0  0  0  0
  1  5  1  0  0  0  0
  5  6  1  0  0  0  0
  5  7  1  0  0  0  0
  5  8  1  0  0  0  0
  8  9  1  0  0  0  0
  8 10  1  0  0  0  0
  8 11  1  0  0  0  0
 11 12  1  0  0  0  0
 11 13  1  0  0  0  0
 11 14  1  0  0  0  0
 14 15  1  0  0  0  0
 14 16  1  0  0  0  0
 14 17  1  0  0  0  0
 17 18  1  0  0  0  0
 17 19  1  0  0  0  0
 17 20  1  0  0  0  0
 20 21  1  0  0  0  0
 20 22  1  0  0  0  0
 20 23  1  0  0  0  0
 23 24  1  0  0  0  0
 23 25  1  0  0  0  0
 23 26  1  0  0  0  0
 26 27  1  0  0  0  0
 26 28  1  0  0  0  0
 26 29  1  0  0  0  0
 29 30  1  0  0  0  0
 29 31  1  0  0  0  0
 29 32  1  0  0  0  0
 32 33  1  0  0  0  0
 32 34  1  0  0  0  0
 32 35  1  0  0  0  0
 35 36  1  0  0  0  0
 35 37  1  0  0  0  0
 35 38  1  0  0  0  0
 38 39  1  0  0  0  0
 38 40  1  0  0  0  0
M  END
> <ChemID>
101380

> <source_casrn>
124-22-1

> <CAS>
124-22-1

> <SMILES>
CCCCCCCCCCCCN

> <NAME>
N-DODECYLAMINE

> <preferred_name>
1-Dodecanamine

> <iupac>
dodecan-1-amine

> <MPID>
20443

> <dsstox_substance_id>
DTXSID3021984

> <Canonical_QSARr>
CCCCCCCCCCCCN

> <InChI_Code_QSARr>
InChI=1S/C12H27N/c1-2-3-4-5-6-7-8-9-10-11-12-13/h2-13H2,1H3

> <InChI Key_QSARr>
JRBPAEWTRLWTQC-UHFFFAOYSA-N

> <Salt_Solvent>
?

> <BP>
259.0

$$$$
101384
  -INDIGO-08031720192D

 10  9  0  0  0  0  0  0  0  0999 V2000
    1.3856    0.8000    0.0000 C   0  0  0  0  0  0  0  0  0  0  0  0
    2.7713    1.6000    0.0000 H   0  0  0  0  0  0  0  0  0  0  0  0
    2.7713    0.0000    0.0000 H   0  0  0  0  0  0  0  0  0  0  0  0
    1.3856    2.4000    0.0000 H   0  0  0  0  0  0  0  0  0  0  0  0
    0.0000    0.0000    0.0000 N   0  0  0  0  0  0  0  0  0  0  0  0
    0.0000   -1.6000    0.0000 H   0  0  0  0  0  0  0  0  0  0  0  0
   -1.3856    0.8000    0.0000 C   0  0  0  0  0  0  0  0  0  0  0  0
   -2.7713    1.6000    0.0000 H   0  0  0  0  0  0  0  0  0  0  0  0
   -2.7713    0.0000    0.0000 H   0  0  0  0  0  0  0  0  0  0  0  0
   -1.3856    2.4000    0.0000 H   0  0  0  0  0  0  0  0  0  0  0  0
  1  2  1  0  0  0  0
  1  3  1  0  0  0  0
  1  4  1  0  0  0  0
  1  5  1  0  0  0  0
  5  6  1  0  0  0  0
  5  7  1  0  0  0  0
  7  8  1  0  0  0  0
  7  9  1  0  0  0  0
  7 10  1  0  0  0  0
M  END
> <ChemID>
101384

> <source_casrn>
124-40-3

> <CAS>
124-40-3

> <SMILES>
CNC

> <NAME>
DIMETHYLAMINE

> <preferred_name>
Dimethylamine

> <iupac>
N-methylmethanamine

> <MPID>
20447

> <dsstox_substance_id>
DTXSID5024057

> <Canonical_QSARr>
CNC

> <InChI_Code_QSARr>
InChI=1S/C2H7N/c1-3-2/h3H,1-2H3

> <InChI Key_QSARr>
ROSDSFDQCJNGOL-UHFFFAOYSA-N

> <Salt_Solvent>
?

> <BP>
6.8

$$$$
101388
  -INDIGO-08031720192D

 12 11  0  0  0  0  0  0  0  0999 V2000
    0.0000    0.0000    0.0000 Si  0  0  0  0  0  0  0  0  0  0  0  0
    0.6123   -1.4782    0.0000 Cl  0  0  0  0  0  0  0  0  0  0  0  0
   -0.6123   -1.4782    0.0000 Cl  0  0  0  0  0  0  0  0  0  0  0  0
   -1.3856    0.8000    0.0000 C   0  0  0  0  0  0  0  0  0  0  0  0
   -1.3856    2.4000    0.0000 H   0  0  0  0  0  0  0  0  0  0  0  0
   -2.7713    0.0000    0.0000 C   0  0  0  0  0  0  0  0  0  0  0  0
   -4.1569    0.8000    0.0000 H   0  0  0  0  0  0  0  0  0  0  0  0
   -2.7713   -1.6000    0.0000 H   0  0  0  0  0  0  0  0  0  0  0  0
    1.3856    0.8000    0.0000 C   0  0  0  0  0  0  0  0  0  0  0  0
    2.7713    1.6000    0.0000 H   0  0  0  0  0  0  0  0  0  0  0  0
    2.7713    0.0000    0.0000 H   0  0  0  0  0  0  0  0  0  0  0  0
    1.3856    2.4000    0.0000 H   0  0  0  0  0  0  0  0  0  0  0  0
  1  2  1  0  0  0  0
  1  3  1  0  0  0  0
  1  4  1  0  0  0  0
  4  5  1  0  0  0  0
  4  6  2  0  0  0  0
  6  7  1  0  0  0  0
  6  8  1  0  0  0  0
  1  9  1  0  0  0  0
  9 10  1  0  0  0  0
  9 11  1  0  0  0  0
  9 12  1  0  0  0  0
M  END
> <ChemID>
101388

> <source_casrn>
124-70-9

> <CAS>
124-70-9

> <SMILES>
C[Si](Cl)(Cl)C=C

> <NAME>
Silane, dichloroethenylmethyl-

> <preferred_name>
Silane, dichloroethenylmethyl-

> <iupac>
dichloro(ethenyl)methylsilane

> <MPID>
20451

> <dsstox_substance_id>
DTXSID3027033

> <Canonical_QSARr>
C[Si](Cl)(Cl)C=C

> <InChI_Code_QSARr>
InChI=1S/C3H6Cl2Si/c1-3-6(2,4)5/h3H,1H2,2H3

> <InChI Key_QSARr>
YLJJAVFOBDSYAN-UHFFFAOYSA-N

> <Salt_Solvent>
?

> <BP>
92.5

$$$$
101392
  -INDIGO-08031720192D

 19 18  0  0  0  0  0  0  0  0999 V2000
    1.3856   -0.8000    0.0000 C   0  0  0  0  0  0  0  0  0  0  0  0
    1.9979   -2.2782    0.0000 H   0  0  0  0  0  0  0  0  0  0  0  0
    0.7734   -2.2782    0.0000 H   0  0  0  0  0  0  0  0  0  0  0  0
    0.0001    0.0000    0.0000 C   0  0  0  0  0  0  0  0  0  0  0  0
   -1.3856    0.8000    0.0000 C   0  0  0  0  0  0  0  0  0  0  0  0
   -1.9979    2.2782    0.0000 H   0  0  0  0  0  0  0  0  0  0  0  0
   -0.7734    2.2782    0.0000 H   0  0  0  0  0  0  0  0  0  0  0  0
   -2.7712    0.0000    0.0000 O   0  0  0  0  0  0  0  0  0  0  0  0
   -4.1569    0.8000    0.0000 H   0  0  0  0  0  0  0  0  0  0  0  0
    0.8000    1.3857    0.0000 C   0  0  0  0  0  0  0  0  0  0  0  0
    1.6000    2.7713    0.0000 H   0  0  0  0  0  0  0  0  0  0  0  0
    0.2528    2.8891    0.0000 H   0  0  0  0  0  0  0  0  0  0  0  0
    2.4000    1.3857    0.0000 H   0  0  0  0  0  0  0  0  0  0  0  0
   -0.8000   -1.3857    0.0000 C   0  0  0  0  0  0  0  0  0  0  0  0
   -1.6000   -2.7713    0.0000 H   0  0  0  0  0  0  0  0  0  0  0  0
   -0.2528   -2.8891    0.0000 H   0  0  0  0  0  0  0  0  0  0  0  0
   -2.4000   -1.3857    0.0000 H   0  0  0  0  0  0  0  0  0  0  0  0
    2.7713    0.0000    0.0000 O   0  0  0  0  0  0  0  0  0  0  0  0
    4.1569   -0.8000    0.0000 H   0  0  0  0  0  0  0  0  0  0  0  0
  1  2  1  0  0  0  0
  1  3  1  0  0  0  0
  1  4  1  0  0  0  0
  4  5  1  0  0  0  0
  5  6  1  0  0  0  0
  5  7  1  0  0  0  0
  5  8  1  0  0  0  0
  8  9  1  0  0  0  0
  4 10  1  0  0  0  0
 10 11  1  0  0  0  0
 10 12  1  0  0  0  0
 10 13  1  0  0  0  0
  4 14  1  0  0  0  0
 14 15  1  0  0  0  0
 14 16  1  0  0  0  0
 14 17  1  0  0  0  0
  1 18  1  0  0  0  0
 18 19  1  0  0  0  0
M  END
> <ChemID>
101392

> <source_casrn>
126-30-7

> <CAS>
126-30-7

> <SMILES>
CC(C)(CO)CO

> <NAME>
1,3-Propanediol, 2,2-dimethyl-

> <preferred_name>
2,2-Dimethylpropane-1,3-diol

> <iupac>
2,2-dimethylpropane-1,3-diol

> <MPID>
20455

> <dsstox_substance_id>
DTXSID8027036

> <Canonical_QSARr>
CC(C)(CO)CO

> <InChI_Code_QSARr>
InChI=1S/C5H12O2/c1-5(2,3-6)4-7/h6-7H,3-4H2,1-2H3

> <InChI Key_QSARr>
SLCVBVWXLSEKPL-UHFFFAOYSA-N

> <Salt_Solvent>
?

> <BP>
208.0

$$$$
101396
  -INDIGO-08031720192D

 44 43  0  0  0  0  0  0  0  0999 V2000
    2.4001    1.3857    0.0000 C   0  0  0  0  0  0  0  0  0  0  0  0
    4.0000    1.3857    0.0000 H   0  0  0  0  0  0  0  0  0  0  0  0
    3.1999    2.7713    0.0000 H   0  0  0  0  0  0  0  0  0  0  0  0
    3.1999   -0.0001    0.0000 H   0  0  0  0  0  0  0  0  0  0  0  0
    0.8000    1.3857    0.0000 C   0  0  0  0  0  0  0  0  0  0  0  0
   -0.4693    2.3596    0.0000 H   0  0  0  0  0  0  0  0  0  0  0  0
    0.5913    2.9720    0.0000 H   0  0  0  0  0  0  0  0  0  0  0  0
   -0.0001   -0.0001    0.0000 C   0  0  0  0  0  0  0  0  0  0  0  0
    1.2692   -0.9740    0.0000 H   0  0  0  0  0  0  0  0  0  0  0  0
    0.2089   -1.5864    0.0000 H   0  0  0  0  0  0  0  0  0  0  0  0
   -1.5999   -0.0001    0.0000 C   0  0  0  0  0  0  0  0  0  0  0  0
   -2.8692    0.9740    0.0000 H   0  0  0  0  0  0  0  0  0  0  0  0
   -1.8089    1.5864    0.0000 H   0  0  0  0  0  0  0  0  0  0  0  0
   -2.4000   -1.3857    0.0000 O   0  0  0  0  0  0  0  0  0  0  0  0
   -3.9999   -1.3857    0.0000 P   0  0  0  0  0  0  0  0  0  0  0  0
   -4.7999   -0.0001    0.0000 O   0  0  0  0  0  0  0  0  0  0  0  0
   -5.6000   -1.3857    0.0000 O   0  0  0  0  0  0  0  0  0  0  0  0
   -6.4001   -0.0001    0.0000 C   0  0  0  0  0  0  0  0  0  0  0  0
   -6.1911    1.5864    0.0000 H   0  0  0  0  0  0  0  0  0  0  0  0
   -5.1308    0.9740    0.0000 H   0  0  0  0  0  0  0  0  0  0  0  0
   -7.9999   -0.0001    0.0000 C   0  0  0  0  0  0  0  0  0  0  0  0
   -8.2089   -1.5864    0.0000 H   0  0  0  0  0  0  0  0  0  0  0  0
   -9.2692   -0.9740    0.0000 H   0  0  0  0  0  0  0  0  0  0  0  0
   -8.8000    1.3857    0.0000 C   0  0  0  0  0  0  0  0  0  0  0  0
   -8.5913    2.9720    0.0000 H   0  0  0  0  0  0  0  0  0  0  0  0
   -7.5307    2.3596    0.0000 H   0  0  0  0  0  0  0  0  0  0  0  0
  -10.4001    1.3857    0.0000 C   0  0  0  0  0  0  0  0  0  0  0  0
  -12.0000    1.3857    0.0000 H   0  0  0  0  0  0  0  0  0  0  0  0
  -11.1999    2.7713    0.0000 H   0  0  0  0  0  0  0  0  0  0  0  0
  -11.1999   -0.0001    0.0000 H   0  0  0  0  0  0  0  0  0  0  0  0
   -4.7999   -2.7712    0.0000 O   0  0  0  0  0  0  0  0  0  0  0  0
   -3.9999   -4.1570    0.0000 C   0  0  0  0  0  0  0  0  0  0  0  0
   -2.5218   -3.5446    0.0000 H   0  0  0  0  0  0  0  0  0  0  0  0
   -2.5218   -4.7692    0.0000 H   0  0  0  0  0  0  0  0  0  0  0  0
   -4.7999   -5.5426    0.0000 C   0  0  0  0  0  0  0  0  0  0  0  0
   -6.2782   -6.1549    0.0000 H   0  0  0  0  0  0  0  0  0  0  0  0
   -6.2782   -4.9302    0.0000 H   0  0  0  0  0  0  0  0  0  0  0  0
   -3.9999   -6.9281    0.0000 C   0  0  0  0  0  0  0  0  0  0  0  0
   -2.5218   -6.3160    0.0000 H   0  0  0  0  0  0  0  0  0  0  0  0
   -2.5218   -7.5405    0.0000 H   0  0  0  0  0  0  0  0  0  0  0  0
   -4.7999   -8.3139    0.0000 C   0  0  0  0  0  0  0  0  0  0  0  0
   -5.6000   -9.6995    0.0000 H   0  0  0  0  0  0  0  0  0  0  0  0
   -3.9999   -9.6995    0.0000 H   0  0  0  0  0  0  0  0  0  0  0  0
   -6.4001   -8.3139    0.0000 H   0  0  0  0  0  0  0  0  0  0  0  0
  1  2  1  0  0  0  0
  1  3  1  0  0  0  0
  1  4  1  0  0  0  0
  1  5  1  0  0  0  0
  5  6  1  0  0  0  0
  5  7  1  0  0  0  0
  5  8  1  0  0  0  0
  8  9  1  0  0  0  0
  8 10  1  0  0  0  0
  8 11  1  0  0  0  0
 11 12  1  0  0  0  0
 11 13  1  0  0  0  0
 11 14  1  0  0  0  0
 14 15  1  0  0  0  0
 15 16  2  0  0  0  0
 15 17  1  0  0  0  0
 17 18  1  0  0  0  0
 18 19  1  0  0  0  0
 18 20  1  0  0  0  0
 18 21  1  0  0  0  0
 21 22  1  0  0  0  0
 21 23  1  0  0  0  0
 21 24  1  0  0  0  0
 24 25  1  0  0  0  0
 24 26  1  0  0  0  0
 24 27  1  0  0  0  0
 27 28  1  0  0  0  0
 27 29  1  0  0  0  0
 27 30  1  0  0  0  0
 15 31  1  0  0  0  0
 31 32  1  0  0  0  0
 32 33  1  0  0  0  0
 32 34  1  0  0  0  0
 32 35  1  0  0  0  0
 35 36  1  0  0  0  0
 35 37  1  0  0  0  0
 35 38  1  0  0  0  0
 38 39  1  0  0  0  0
 38 40  1  0  0  0  0
 38 41  1  0  0  0  0
 41 42  1  0  0  0  0
 41 43  1  0  0  0  0
 41 44  1  0  0  0  0
M  END
> <ChemID>
101396

> <source_casrn>
126-73-8

> <CAS>
126-73-8

> <SMILES>
CCCCOP(=O)(OCCCC)OCCCC

> <NAME>
TRIBUTYLPHOSPHATE

> <preferred_name>
Tributyl phosphate

> <iupac>
tributyl phosphate

> <MPID>
20459

> <dsstox_substance_id>
DTXSID3021986

> <Canonical_QSARr>
CCCCOP(=O)(OCCCC)OCCCC

> <InChI_Code_QSARr>
InChI=1S/C12H27O4P/c1-4-7-10-14-17(13,15-11-8-5-2)16-12-9-6-3/h4-12H2,1-3H3

> <InChI Key_QSARr>
STCOOQWBFONSKY-UHFFFAOYSA-N

> <Salt_Solvent>
?

> <BP>
289.0

$$$$
101400
  -INDIGO-08031720192D

 12 11  0  0  0  0  0  0  0  0999 V2000
    1.6000    0.0000    0.0000 C   0  0  0  0  0  0  0  0  0  0  0  0
    3.2000    0.0000    0.0000 H   0  0  0  0  0  0  0  0  0  0  0  0
    2.4000   -1.3856    0.0000 H   0  0  0  0  0  0  0  0  0  0  0  0
    0.0000    0.0000    0.0000 C   0  0  0  0  0  0  0  0  0  0  0  0
    0.0000   -1.6000    0.0000 H   0  0  0  0  0  0  0  0  0  0  0  0
   -1.6000    0.0000    0.0000 C   0  0  0  0  0  0  0  0  0  0  0  0
   -3.2000    0.0000    0.0000 H   0  0  0  0  0  0  0  0  0  0  0  0
   -2.4000   -1.3856    0.0000 H   0  0  0  0  0  0  0  0  0  0  0  0
   -2.4000    1.3856    0.0000 H   0  0  0  0  0  0  0  0  0  0  0  0
    0.0000    1.6000    0.0000 O   0  0  0  0  0  0  0  0  0  0  0  0
    1.3856    2.4000    0.0000 H   0  0  0  0  0  0  0  0  0  0  0  0
    2.4000    1.3856    0.0000 Cl  0  0  0  0  0  0  0  0  0  0  0  0
  1  2  1  0  0  0  0
  1  3  1  0  0  0  0
  1  4  1  0  0  0  0
  4  5  1  0  0  0  0
  4  6  1  0  0  0  0
  6  7  1  0  0  0  0
  6  8  1  0  0  0  0
  6  9  1  0  0  0  0
  4 10  1  0  0  0  0
 10 11  1  0  0  0  0
  1 12  1  0  0  0  0
M  END
> <ChemID>
101400

> <source_casrn>
127-00-4

> <CAS>
127-00-4

> <SMILES>
CC(O)CCl

> <NAME>
1-CHLORO-2-PROPANOL

> <preferred_name>
1-Chloro-2-propanol

> <iupac>
1-chloropropan-2-ol

> <MPID>
20463

> <dsstox_substance_id>
DTXSID5020285

> <Canonical_QSARr>
CC(O)CCl

> <InChI_Code_QSARr>
InChI=1S/C3H7ClO/c1-3(5)2-4/h3,5H,2H2,1H3

> <InChI Key_QSARr>
YYTSGNJTASLUOY-UHFFFAOYSA-N

> <Salt_Solvent>
?

> <BP>
127.0

$$$$
101404
  -INDIGO-08031720192D

 10  9  0  0  0  0  0  0  0  0999 V2000
   -1.3856    0.8000    0.0000 C   0  0  0  0  0  0  0  0  0  0  0  0
    0.0000    0.0000    0.0000 C   0  0  0  0  0  0  0  0  0  0  0  0
    1.3856    0.8000    0.0000 C   0  0  0  0  0  0  0  0  0  0  0  0
    2.7713    1.6000    0.0000 F   0  0  0  0  0  0  0  0  0  0  0  0
    2.7713    0.0000    0.0000 F   0  0  0  0  0  0  0  0  0  0  0  0
    1.3856    2.4000    0.0000 Cl  0  0  0  0  0  0  0  0  0  0  0  0
   -0.0000   -1.6000    0.0000 O   0  0  0  0  0  0  0  0  0  0  0  0
   -2.7713    1.6000    0.0000 F   0  0  0  0  0  0  0  0  0  0  0  0
   -2.7713    0.0000    0.0000 F   0  0  0  0  0  0  0  0  0  0  0  0
   -1.3856    2.4000    0.0000 Cl  0  0  0  0  0  0  0  0  0  0  0  0
  1  2  1  0  0  0  0
  2  3  1  0  0  0  0
  3  4  1  0  0  0  0
  3  5  1  0  0  0  0
  3  6  1  0  0  0  0
  2  7  2  0  0  0  0
  1  8  1  0  0  0  0
  1  9  1  0  0  0  0
  1 10  1  0  0  0  0
M  END
> <ChemID>
101404

> <source_casrn>
127-21-9

> <CAS>
127-21-9

> <SMILES>
O=C(C(F)(F)Cl)C(F)(F)Cl

> <NAME>
1,3-Dichlorotetrafluoroacetone

> <preferred_name>
2-Propanone, 1,3-dichloro-1,1,3,3-tetrafluoro-

> <iupac>
1,3-dichloro-1,1,3,3-tetrafluoropropan-2-one

> <MPID>
20467

> <dsstox_substance_id>
DTXSID1073159

> <Canonical_QSARr>
O=C(C(F)(F)Cl)C(F)(F)Cl

> <InChI_Code_QSARr>
InChI=1S/C3Cl2F4O/c4-2(6,7)1(10)3(5,8)9

> <InChI Key_QSARr>
QRKKTXWUDLJYCV-UHFFFAOYSA-N

> <Salt_Solvent>
?

> <BP>
44.5

$$$$
101408
  -INDIGO-08031720192D

 26 27  0  0  0  0  0  0  0  0999 V2000
    4.5084   -0.0884    0.0000 C   0  0  0  0  0  0  0  0  0  0  0  0
    5.9605    0.5835    0.0000 H   0  0  0  0  0  0  0  0  0  0  0  0
    5.1147   -1.5691    0.0000 H   0  0  0  0  0  0  0  0  0  0  0  0
    3.8376    1.2062    0.0000 C   0  0  0  0  0  0  0  0  0  0  0  0
    5.3980    1.5600    0.0000 H   0  0  0  0  0  0  0  0  0  0  0  0
    4.4329    2.6914    0.0000 H   0  0  0  0  0  0  0  0  0  0  0  0
    2.2450    1.6766    0.0000 C   0  0  0  0  0  0  0  0  0  0  0  0
    3.2826    2.8946    0.0000 H   0  0  0  0  0  0  0  0  0  0  0  0
   -0.0000    0.0000    0.0000 C   0  0  0  0  0  0  0  0  0  0  0  0
   -1.2956    0.9390    0.0000 C   0  0  0  0  0  0  0  0  0  0  0  0
   -2.5910    1.8780    0.0000 H   0  0  0  0  0  0  0  0  0  0  0  0
   -2.7564    0.2865    0.0000 H   0  0  0  0  0  0  0  0  0  0  0  0
   -1.1301    2.5304    0.0000 H   0  0  0  0  0  0  0  0  0  0  0  0
   -0.5109   -1.5162    0.0000 C   0  0  0  0  0  0  0  0  0  0  0  0
   -1.0220   -3.0324    0.0000 H   0  0  0  0  0  0  0  0  0  0  0  0
   -2.0795   -1.8318    0.0000 H   0  0  0  0  0  0  0  0  0  0  0  0
    0.5467   -2.7168    0.0000 H   0  0  0  0  0  0  0  0  0  0  0  0
    1.6255   -0.0373    0.0000 C   0  0  0  0  0  0  0  0  0  0  0  0
    1.3309   -1.6099    0.0000 H   0  0  0  0  0  0  0  0  0  0  0  0
    1.5557    3.1156    0.0000 C   0  0  0  0  0  0  0  0  0  0  0  0
    2.6369    4.2950    0.0000 H   0  0  0  0  0  0  0  0  0  0  0  0
    0.0582    3.6791    0.0000 H   0  0  0  0  0  0  0  0  0  0  0  0
    3.1299   -0.5821    0.0000 C   0  0  0  0  0  0  0  0  0  0  0  0
    3.1270   -2.1821    0.0000 C   0  0  0  0  0  0  0  0  0  0  0  0
    4.5112   -2.9846    0.0000 H   0  0  0  0  0  0  0  0  0  0  0  0
    1.7399   -2.9797    0.0000 H   0  0  0  0  0  0  0  0  0  0  0  0
  1  2  1  0  0  0  0
  1  3  1  0  0  0  0
  1  4  1  0  0  0  0
  4  5  1  0  0  0  0
  4  6  1  0  0  0  0
  4  7  1  0  0  0  0
  7  8  1  0  0  0  0
  7  9  1  0  0  0  0
  9 10  1  0  0  0  0
 10 11  1  0  0  0  0
 10 12  1  0  0  0  0
 10 13  1  0  0  0  0
  9 14  1  0  0  0  0
 14 15  1  0  0  0  0
 14 16  1  0  0  0  0
 14 17  1  0  0  0  0
  9 18  1  0  0  0  0
 18 19  1  0  0  0  0
 18 20  1  0  0  0  0
 20  7  1  0  0  0  0
 20 21  1  0  0  0  0
 20 22  1  0  0  0  0
 18 23  1  0  0  0  0
 23  1  1  0  0  0  0
 23 24  2  0  0  0  0
 24 25  1  0  0  0  0
 24 26  1  0  0  0  0
M  END
> <ChemID>
101408

> <source_casrn>
127-91-3|18172-67-3

> <CAS>
127-91-3|18172-67-3

> <SMILES>
CC1(C)C2CC1CCC2=C

> <NAME>
beta-PINENE, (1S)-(-)-beta-Pinene

> <preferred_name>
beta-Pinene

> <iupac>
6,6-dimethyl-2-methylidenebicyclo[3.1.1]heptane

> <MPID>
20471|24306

> <dsstox_substance_id>
DTXSID7027049|DTXSID1041184

> <Canonical_QSARr>
CC1(C)C2CC1CCC2=C

> <InChI_Code_QSARr>
InChI=1S/C10H16/c1-7-4-5-8-6-9(7)10(8,2)3/h8-9H,1,4-6H2,2-3H3

> <InChI Key_QSARr>
WTARULDDTDQWMU-UHFFFAOYSA-N

> <Salt_Solvent>
?

> <BP>
166.0

$$$$
101413
  -INDIGO-08031720192D

 26 29  0  0  0  0  0  0  0  0999 V2000
    0.0001    0.0001    0.0000 C   0  0  0  0  0  0  0  0  0  0  0  0
   -1.6001    0.0001    0.0000 C   0  0  0  0  0  0  0  0  0  0  0  0
   -2.4001   -1.3856    0.0000 C   0  0  0  0  0  0  0  0  0  0  0  0
   -4.0000   -1.3856    0.0000 C   0  0  0  0  0  0  0  0  0  0  0  0
   -4.8000   -2.7712    0.0000 H   0  0  0  0  0  0  0  0  0  0  0  0
   -4.8000    0.0001    0.0000 C   0  0  0  0  0  0  0  0  0  0  0  0
   -6.4000    0.0001    0.0000 H   0  0  0  0  0  0  0  0  0  0  0  0
   -4.0000    1.3856    0.0000 C   0  0  0  0  0  0  0  0  0  0  0  0
   -4.8000    2.7713    0.0000 H   0  0  0  0  0  0  0  0  0  0  0  0
   -2.4001    1.3856    0.0000 C   0  0  0  0  0  0  0  0  0  0  0  0
   -1.6001    2.7713    0.0000 C   0  0  0  0  0  0  0  0  0  0  0  0
   -2.4001    4.1569    0.0000 H   0  0  0  0  0  0  0  0  0  0  0  0
    0.0001    2.7713    0.0000 C   0  0  0  0  0  0  0  0  0  0  0  0
    0.8001    4.1569    0.0000 H   0  0  0  0  0  0  0  0  0  0  0  0
    0.8001    1.3856    0.0000 C   0  0  0  0  0  0  0  0  0  0  0  0
    2.4000    1.3856    0.0000 C   0  0  0  0  0  0  0  0  0  0  0  0
    3.2000    2.7712    0.0000 H   0  0  0  0  0  0  0  0  0  0  0  0
    3.2000    0.0001    0.0000 C   0  0  0  0  0  0  0  0  0  0  0  0
    4.8000    0.0001    0.0000 H   0  0  0  0  0  0  0  0  0  0  0  0
    2.4000   -1.3856    0.0000 C   0  0  0  0  0  0  0  0  0  0  0  0
    3.2000   -2.7712    0.0000 H   0  0  0  0  0  0  0  0  0  0  0  0
    0.8001   -1.3856    0.0000 C   0  0  0  0  0  0  0  0  0  0  0  0
    0.0001   -2.7712    0.0000 C   0  0  0  0  0  0  0  0  0  0  0  0
    0.8001   -4.1569    0.0000 H   0  0  0  0  0  0  0  0  0  0  0  0
   -1.6001   -2.7712    0.0000 C   0  0  0  0  0  0  0  0  0  0  0  0
   -2.4001   -4.1569    0.0000 H   0  0  0  0  0  0  0  0  0  0  0  0
  1  2  2  0  0  0  0
  2  3  1  0  0  0  0
  3  4  1  0  0  0  0
  4  5  1  0  0  0  0
  4  6  2  0  0  0  0
  6  7  1  0  0  0  0
  6  8  1  0  0  0  0
  8  9  1  0  0  0  0
  8 10  2  0  0  0  0
 10  2  1  0  0  0  0
 10 11  1  0  0  0  0
 11 12  1  0  0  0  0
 11 13  2  0  0  0  0
 13 14  1  0  0  0  0
 13 15  1  0  0  0  0
 15  1  1  0  0  0  0
 15 16  2  0  0  0  0
 16 17  1  0  0  0  0
 16 18  1  0  0  0  0
 18 19  1  0  0  0  0
 18 20  2  0  0  0  0
 20 21  1  0  0  0  0
 20 22  1  0  0  0  0
 22  1  1  0  0  0  0
 22 23  2  0  0  0  0
 23 24  1  0  0  0  0
 23 25  1  0  0  0  0
 25  3  2  0  0  0  0
 25 26  1  0  0  0  0
M  END
> <ChemID>
101413

> <source_casrn>
129-00-0

> <CAS>
129-00-0

> <SMILES>
c1cc2cccc3ccc4cccc1c4c32

> <NAME>
PYRENE

> <preferred_name>
Pyrene

> <iupac>
pyrene

> <MPID>
20475

> <dsstox_substance_id>
DTXSID3024289

> <Canonical_QSARr>
c1cc2cccc3ccc4cccc1c4c32

> <InChI_Code_QSARr>
InChI=1S/C16H10/c1-3-11-7-9-13-5-2-6-14-10-8-12(4-1)15(11)16(13)14/h1-10H

> <InChI Key_QSARr>
BBEAQIROQSPTKN-UHFFFAOYSA-N

> <Salt_Solvent>
?

> <BP>
404.0

$$$$
101417
  -INDIGO-08031720192D

 27 28  0  0  0  0  0  0  0  0999 V2000
    1.3857    2.4000    0.0000 O   0  0  0  0  0  0  0  0  0  0  0  0
    1.3857    0.8000    0.0000 C   0  0  0  0  0  0  0  0  0  0  0  0
    2.9613    0.5222    0.0000 C   0  0  0  0  0  0  0  0  0  0  0  0
    3.5086   -0.9814    0.0000 C   0  0  0  0  0  0  0  0  0  0  0  0
    2.4802   -2.2070    0.0000 H   0  0  0  0  0  0  0  0  0  0  0  0
    5.0842   -1.2592    0.0000 C   0  0  0  0  0  0  0  0  0  0  0  0
    5.6315   -2.7627    0.0000 H   0  0  0  0  0  0  0  0  0  0  0  0
    6.1126   -0.0335    0.0000 C   0  0  0  0  0  0  0  0  0  0  0  0
    7.6884   -0.3113    0.0000 H   0  0  0  0  0  0  0  0  0  0  0  0
    5.5655    1.4701    0.0000 C   0  0  0  0  0  0  0  0  0  0  0  0
    6.5940    2.6957    0.0000 H   0  0  0  0  0  0  0  0  0  0  0  0
    3.9898    1.7479    0.0000 C   0  0  0  0  0  0  0  0  0  0  0  0
    3.4426    3.2513    0.0000 H   0  0  0  0  0  0  0  0  0  0  0  0
   -0.0001   -0.0001    0.0000 C   0  0  0  0  0  0  0  0  0  0  0  0
   -1.3857    0.8000    0.0000 C   0  0  0  0  0  0  0  0  0  0  0  0
   -1.3857    2.4000    0.0000 C   0  0  0  0  0  0  0  0  0  0  0  0
   -1.3857    4.0000    0.0000 H   0  0  0  0  0  0  0  0  0  0  0  0
   -2.7713    3.2001    0.0000 H   0  0  0  0  0  0  0  0  0  0  0  0
   -0.0001    3.2001    0.0000 H   0  0  0  0  0  0  0  0  0  0  0  0
   -2.7713    0.0001    0.0000 C   0  0  0  0  0  0  0  0  0  0  0  0
   -4.1569    0.8000    0.0000 H   0  0  0  0  0  0  0  0  0  0  0  0
   -2.7713   -1.6001    0.0000 C   0  0  0  0  0  0  0  0  0  0  0  0
   -4.1569   -2.4000    0.0000 H   0  0  0  0  0  0  0  0  0  0  0  0
   -1.3857   -2.4000    0.0000 C   0  0  0  0  0  0  0  0  0  0  0  0
   -1.3857   -4.0000    0.0000 H   0  0  0  0  0  0  0  0  0  0  0  0
   -0.0001   -1.6001    0.0000 C   0  0  0  0  0  0  0  0  0  0  0  0
    1.3857   -2.4000    0.0000 H   0  0  0  0  0  0  0  0  0  0  0  0
  1  2  2  0  0  0  0
  2  3  1  0  0  0  0
  3  4  1  0  0  0  0
  4  5  1  0  0  0  0
  4  6  2  0  0  0  0
  6  7  1  0  0  0  0
  6  8  1  0  0  0  0
  8  9  1  0  0  0  0
  8 10  2  0  0  0  0
 10 11  1  0  0  0  0
 10 12  1  0  0  0  0
 12  3  2  0  0  0  0
 12 13  1  0  0  0  0
  2 14  1  0  0  0  0
 14 15  1  0  0  0  0
 15 16  1  0  0  0  0
 16 17  1  0  0  0  0
 16 18  1  0  0  0  0
 16 19  1  0  0  0  0
 15 20  2  0  0  0  0
 20 21  1  0  0  0  0
 20 22  1  0  0  0  0
 22 23  1  0  0  0  0
 22 24  2  0  0  0  0
 24 25  1  0  0  0  0
 24 26  1  0  0  0  0
 26 14  2  0  0  0  0
 26 27  1  0  0  0  0
M  END
> <ChemID>
101417

> <source_casrn>
131-58-8

> <CAS>
131-58-8

> <SMILES>
Cc1ccccc1C(=O)c1ccccc1

> <NAME>
Methanone, (2-methylphenyl)phenyl-

> <preferred_name>
Methanone, (2-methylphenyl)phenyl-

> <iupac>
(2-methylphenyl)-phenylmethanone

> <MPID>
20479

> <dsstox_substance_id>
DTXSID5059618

> <Canonical_QSARr>
Cc1ccccc1C(=O)c1ccccc1

> <InChI_Code_QSARr>
InChI=1S/C14H12O/c1-11-7-5-6-10-13(11)14(15)12-8-3-2-4-9-12/h2-10H,1H3

> <InChI Key_QSARr>
CKGKXGQVRVAKEA-UHFFFAOYSA-N

> <Salt_Solvent>
?

> <BP>
308.0

$$$$
101421
  -INDIGO-08031720192D

 29 28  0  0  0  0  0  0  0  0999 V2000
   -0.8001    1.3857    0.0000 C   0  0  0  0  0  0  0  0  0  0  0  0
    0.0000   -0.0000    0.0000 C   0  0  0  0  0  0  0  0  0  0  0  0
    0.8001   -1.3856    0.0000 H   0  0  0  0  0  0  0  0  0  0  0  0
    1.3856    0.8000    0.0000 C   0  0  0  0  0  0  0  0  0  0  0  0
    2.7712   -0.0000    0.0000 O   0  0  0  0  0  0  0  0  0  0  0  0
    4.1570    0.8000    0.0000 C   0  0  0  0  0  0  0  0  0  0  0  0
    4.7692    2.2782    0.0000 H   0  0  0  0  0  0  0  0  0  0  0  0
    3.5446    2.2782    0.0000 H   0  0  0  0  0  0  0  0  0  0  0  0
    5.5426   -0.0000    0.0000 C   0  0  0  0  0  0  0  0  0  0  0  0
    6.9282   -0.8000    0.0000 H   0  0  0  0  0  0  0  0  0  0  0  0
    6.9282    0.8000    0.0000 H   0  0  0  0  0  0  0  0  0  0  0  0
    5.5426   -1.6000    0.0000 H   0  0  0  0  0  0  0  0  0  0  0  0
    1.3856    2.4000    0.0000 O   0  0  0  0  0  0  0  0  0  0  0  0
   -1.2257   -1.0284    0.0000 C   0  0  0  0  0  0  0  0  0  0  0  0
   -2.4053    0.0525    0.0000 H   0  0  0  0  0  0  0  0  0  0  0  0
   -2.8241   -1.0982    0.0000 H   0  0  0  0  0  0  0  0  0  0  0  0
   -0.9479   -2.6042    0.0000 C   0  0  0  0  0  0  0  0  0  0  0  0
   -0.6699   -4.1798    0.0000 H   0  0  0  0  0  0  0  0  0  0  0  0
   -2.1735   -3.6326    0.0000 H   0  0  0  0  0  0  0  0  0  0  0  0
    0.5556   -3.1513    0.0000 H   0  0  0  0  0  0  0  0  0  0  0  0
   -2.4000    1.3857    0.0000 O   0  0  0  0  0  0  0  0  0  0  0  0
   -3.2001    2.7713    0.0000 C   0  0  0  0  0  0  0  0  0  0  0  0
   -1.9306    3.7453    0.0000 H   0  0  0  0  0  0  0  0  0  0  0  0
   -2.9912    4.3576    0.0000 H   0  0  0  0  0  0  0  0  0  0  0  0
   -4.8000    2.7713    0.0000 C   0  0  0  0  0  0  0  0  0  0  0  0
   -6.4000    2.7713    0.0000 H   0  0  0  0  0  0  0  0  0  0  0  0
   -5.5999    4.1570    0.0000 H   0  0  0  0  0  0  0  0  0  0  0  0
   -5.5999    1.3857    0.0000 H   0  0  0  0  0  0  0  0  0  0  0  0
    0.0000    2.7713    0.0000 O   0  0  0  0  0  0  0  0  0  0  0  0
  1  2  1  0  0  0  0
  2  3  1  0  0  0  0
  2  4  1  0  0  0  0
  4  5  1  0  0  0  0
  5  6  1  0  0  0  0
  6  7  1  0  0  0  0
  6  8  1  0  0  0  0
  6  9  1  0  0  0  0
  9 10  1  0  0  0  0
  9 11  1  0  0  0  0
  9 12  1  0  0  0  0
  4 13  2  0  0  0  0
  2 14  1  0  0  0  0
 14 15  1  0  0  0  0
 14 16  1  0  0  0  0
 14 17  1  0  0  0  0
 17 18  1  0  0  0  0
 17 19  1  0  0  0  0
 17 20  1  0  0  0  0
  1 21  1  0  0  0  0
 21 22  1  0  0  0  0
 22 23  1  0  0  0  0
 22 24  1  0  0  0  0
 22 25  1  0  0  0  0
 25 26  1  0  0  0  0
 25 27  1  0  0  0  0
 25 28  1  0  0  0  0
  1 29  2  0  0  0  0
M  END
> <ChemID>
101421

> <source_casrn>
133-13-1

> <CAS>
133-13-1

> <SMILES>
CCC(C(=O)OCC)C(=O)OCC

> <NAME>
Propanedioic acid, ethyl-, diethyl ester

> <preferred_name>
Diethyl ethylpropanedioate

> <iupac>
diethyl ethylpropanedioate

> <MPID>
20483

> <dsstox_substance_id>
DTXSID7038739

> <Canonical_QSARr>
CCC(C(=O)OCC)C(=O)OCC

> <InChI_Code_QSARr>
InChI=1S/C9H16O4/c1-4-7(8(10)12-5-2)9(11)13-6-3/h7H,4-6H2,1-3H3

> <InChI Key_QSARr>
VQAZCUCWHIIFGE-UHFFFAOYSA-N

> <Salt_Solvent>
?

> <BP>
208.0

$$$$
101425
  -INDIGO-08031720192D

 31 31  0  0  0  0  0  0  0  0999 V2000
    2.6042    0.9479    0.0000 C   0  0  0  0  0  0  0  0  0  0  0  0
    3.6325    2.1735    0.0000 H   0  0  0  0  0  0  0  0  0  0  0  0
    4.1798    0.6700    0.0000 H   0  0  0  0  0  0  0  0  0  0  0  0
    2.0569    2.4514    0.0000 H   0  0  0  0  0  0  0  0  0  0  0  0
    1.0284    1.2256    0.0000 C   0  0  0  0  0  0  0  0  0  0  0  0
   -0.0525    2.4053    0.0000 H   0  0  0  0  0  0  0  0  0  0  0  0
    1.0982    2.8241    0.0000 H   0  0  0  0  0  0  0  0  0  0  0  0
    0.0001   -0.0000    0.0000 N   0  0  0  0  0  0  0  0  0  0  0  0
    0.5472   -1.5035    0.0000 C   0  0  0  0  0  0  0  0  0  0  0  0
    0.0660   -3.0295    0.0000 H   0  0  0  0  0  0  0  0  0  0  0  0
   -0.8719   -2.2423    0.0000 H   0  0  0  0  0  0  0  0  0  0  0  0
    2.1228   -1.7814    0.0000 C   0  0  0  0  0  0  0  0  0  0  0  0
    2.6701   -3.2849    0.0000 H   0  0  0  0  0  0  0  0  0  0  0  0
    3.6987   -2.0591    0.0000 H   0  0  0  0  0  0  0  0  0  0  0  0
    1.0945   -3.0070    0.0000 H   0  0  0  0  0  0  0  0  0  0  0  0
   -1.5757    0.2778    0.0000 C   0  0  0  0  0  0  0  0  0  0  0  0
   -2.1228    1.7814    0.0000 O   0  0  0  0  0  0  0  0  0  0  0  0
   -2.8014   -0.7506    0.0000 C   0  0  0  0  0  0  0  0  0  0  0  0
   -2.8014   -2.3506    0.0000 C   0  0  0  0  0  0  0  0  0  0  0  0
   -1.4158   -3.1506    0.0000 H   0  0  0  0  0  0  0  0  0  0  0  0
   -4.1869   -3.1506    0.0000 C   0  0  0  0  0  0  0  0  0  0  0  0
   -4.1869   -4.7506    0.0000 H   0  0  0  0  0  0  0  0  0  0  0  0
   -5.5726   -2.3506    0.0000 C   0  0  0  0  0  0  0  0  0  0  0  0
   -6.9583   -3.1506    0.0000 H   0  0  0  0  0  0  0  0  0  0  0  0
   -5.5726   -0.7506    0.0000 C   0  0  0  0  0  0  0  0  0  0  0  0
   -6.9583    0.0493    0.0000 C   0  0  0  0  0  0  0  0  0  0  0  0
   -8.3439    0.8494    0.0000 H   0  0  0  0  0  0  0  0  0  0  0  0
   -8.3439   -0.7506    0.0000 H   0  0  0  0  0  0  0  0  0  0  0  0
   -6.9583    1.6494    0.0000 H   0  0  0  0  0  0  0  0  0  0  0  0
   -4.1869    0.0493    0.0000 C   0  0  0  0  0  0  0  0  0  0  0  0
   -4.1869    1.6494    0.0000 H   0  0  0  0  0  0  0  0  0  0  0  0
  1  2  1  0  0  0  0
  1  3  1  0  0  0  0
  1  4  1  0  0  0  0
  1  5  1  0  0  0  0
  5  6  1  0  0  0  0
  5  7  1  0  0  0  0
  5  8  1  0  0  0  0
  8  9  1  0  0  0  0
  9 10  1  0  0  0  0
  9 11  1  0  0  0  0
  9 12  1  0  0  0  0
 12 13  1  0  0  0  0
 12 14  1  0  0  0  0
 12 15  1  0  0  0  0
  8 16  1  0  0  0  0
 16 17  2  0  0  0  0
 16 18  1  0  0  0  0
 18 19  1  0  0  0  0
 19 20  1  0  0  0  0
 19 21  2  0  0  0  0
 21 22  1  0  0  0  0
 21 23  1  0  0  0  0
 23 24  1  0  0  0  0
 23 25  2  0  0  0  0
 25 26  1  0  0  0  0
 26 27  1  0  0  0  0
 26 28  1  0  0  0  0
 26 29  1  0  0  0  0
 25 30  1  0  0  0  0
 30 18  2  0  0  0  0
 30 31  1  0  0  0  0
M  END
> <ChemID>
101425

> <source_casrn>
134-62-3

> <CAS>
134-62-3

> <SMILES>
Cc1cc(ccc1)C(=O)N(CC)CC

> <NAME>
DEET [N,N,-DIET-3-ME BENZAMIDE]

> <preferred_name>
DEET

> <iupac>
N,N-diethyl-3-methylbenzamide

> <MPID>
20487

> <dsstox_substance_id>
DTXSID2021995

> <Canonical_QSARr>
Cc1cc(ccc1)C(=O)N(CC)CC

> <InChI_Code_QSARr>
InChI=1S/C12H17NO/c1-4-13(5-2)12(14)11-8-6-7-10(3)9-11/h6-9H,4-5H2,1-3H3

> <InChI Key_QSARr>
MMOXZBCLCQITDF-UHFFFAOYSA-N

> <Salt_Solvent>
?

> <BP>
290.0

$$$$
101429
  -INDIGO-08031720192D

 24 24  0  0  0  0  0  0  0  0999 V2000
   -0.0000   -0.0000    0.0000 C   0  0  0  0  0  0  0  0  0  0  0  0
    1.6000   -0.0000    0.0000 C   0  0  0  0  0  0  0  0  0  0  0  0
    2.4001    1.3856    0.0000 H   0  0  0  0  0  0  0  0  0  0  0  0
    2.4001   -1.3857    0.0000 C   0  0  0  0  0  0  0  0  0  0  0  0
    4.0000   -1.3857    0.0000 H   0  0  0  0  0  0  0  0  0  0  0  0
    1.6000   -2.7713    0.0000 C   0  0  0  0  0  0  0  0  0  0  0  0
    2.4001   -4.1569    0.0000 H   0  0  0  0  0  0  0  0  0  0  0  0
   -0.0000   -2.7713    0.0000 C   0  0  0  0  0  0  0  0  0  0  0  0
   -0.8000   -4.1569    0.0000 H   0  0  0  0  0  0  0  0  0  0  0  0
   -0.8000   -1.3857    0.0000 C   0  0  0  0  0  0  0  0  0  0  0  0
   -2.4000   -1.3857    0.0000 C   0  0  0  0  0  0  0  0  0  0  0  0
   -2.6088    0.2007    0.0000 H   0  0  0  0  0  0  0  0  0  0  0  0
   -3.6694   -0.4116    0.0000 H   0  0  0  0  0  0  0  0  0  0  0  0
   -3.2001   -2.7713    0.0000 C   0  0  0  0  0  0  0  0  0  0  0  0
   -4.8000   -2.7713    0.0000 H   0  0  0  0  0  0  0  0  0  0  0  0
   -4.0000   -4.1569    0.0000 H   0  0  0  0  0  0  0  0  0  0  0  0
   -4.0000   -1.3857    0.0000 H   0  0  0  0  0  0  0  0  0  0  0  0
   -0.8000    1.3856    0.0000 C   0  0  0  0  0  0  0  0  0  0  0  0
   -0.5911    2.9720    0.0000 H   0  0  0  0  0  0  0  0  0  0  0  0
    0.4694    2.3596    0.0000 H   0  0  0  0  0  0  0  0  0  0  0  0
   -2.4000    1.3856    0.0000 C   0  0  0  0  0  0  0  0  0  0  0  0
   -3.2001    2.7713    0.0000 H   0  0  0  0  0  0  0  0  0  0  0  0
   -4.0000    1.3856    0.0000 H   0  0  0  0  0  0  0  0  0  0  0  0
   -1.6000    2.7713    0.0000 H   0  0  0  0  0  0  0  0  0  0  0  0
  1  2  1  0  0  0  0
  2  3  1  0  0  0  0
  2  4  2  0  0  0  0
  4  5  1  0  0  0  0
  4  6  1  0  0  0  0
  6  7  1  0  0  0  0
  6  8  2  0  0  0  0
  8  9  1  0  0  0  0
  8 10  1  0  0  0  0
 10  1  2  0  0  0  0
 10 11  1  0  0  0  0
 11 12  1  0  0  0  0
 11 13  1  0  0  0  0
 11 14  1  0  0  0  0
 14 15  1  0  0  0  0
 14 16  1  0  0  0  0
 14 17  1  0  0  0  0
  1 18  1  0  0  0  0
 18 19  1  0  0  0  0
 18 20  1  0  0  0  0
 18 21  1  0  0  0  0
 21 22  1  0  0  0  0
 21 23  1  0  0  0  0
 21 24  1  0  0  0  0
M  END
> <ChemID>
101429

> <source_casrn>
135-01-3

> <CAS>
135-01-3

> <SMILES>
CCc1ccccc1CC

> <NAME>
O-DIETHYLBENZENE

> <preferred_name>
o-Diethylbenzene

> <iupac>
1,2-diethylbenzene

> <MPID>
20491

> <dsstox_substance_id>
DTXSID6052742

> <Canonical_QSARr>
CCc1ccccc1CC

> <InChI_Code_QSARr>
InChI=1S/C10H14/c1-3-9-7-5-6-8-10(9)4-2/h5-8H,3-4H2,1-2H3

> <InChI Key_QSARr>
KVNYFPKFSJIPBJ-UHFFFAOYSA-N

> <Salt_Solvent>
?

> <BP>
184.0

$$$$
101434
  -INDIGO-08031720192D

 24 24  0  0  0  0  0  0  0  0999 V2000
   -1.6000   -0.0000    0.0000 C   0  0  0  0  0  0  0  0  0  0  0  0
   -0.0000   -0.0000    0.0000 C   0  0  0  0  0  0  0  0  0  0  0  0
   -0.0000   -1.6000    0.0000 H   0  0  0  0  0  0  0  0  0  0  0  0
    1.3856   -0.8000    0.0000 C   0  0  0  0  0  0  0  0  0  0  0  0
    2.3596    0.4694    0.0000 H   0  0  0  0  0  0  0  0  0  0  0  0
    2.9720   -0.5911    0.0000 H   0  0  0  0  0  0  0  0  0  0  0  0
    1.3856   -2.4000    0.0000 C   0  0  0  0  0  0  0  0  0  0  0  0
    1.3856   -4.0000    0.0000 H   0  0  0  0  0  0  0  0  0  0  0  0
    2.7713   -3.2000    0.0000 H   0  0  0  0  0  0  0  0  0  0  0  0
   -0.0000   -3.2000    0.0000 H   0  0  0  0  0  0  0  0  0  0  0  0
   -0.0000    1.6000    0.0000 C   0  0  0  0  0  0  0  0  0  0  0  0
    1.3856    2.4000    0.0000 H   0  0  0  0  0  0  0  0  0  0  0  0
   -0.0000    3.2000    0.0000 H   0  0  0  0  0  0  0  0  0  0  0  0
    1.3856    0.8000    0.0000 H   0  0  0  0  0  0  0  0  0  0  0  0
   -2.4000    1.3857    0.0000 C   0  0  0  0  0  0  0  0  0  0  0  0
   -1.6000    2.7713    0.0000 H   0  0  0  0  0  0  0  0  0  0  0  0
   -4.0001    1.3857    0.0000 C   0  0  0  0  0  0  0  0  0  0  0  0
   -4.8000    2.7713    0.0000 H   0  0  0  0  0  0  0  0  0  0  0  0
   -4.8000   -0.0000    0.0000 C   0  0  0  0  0  0  0  0  0  0  0  0
   -6.4000   -0.0000    0.0000 H   0  0  0  0  0  0  0  0  0  0  0  0
   -4.0001   -1.3857    0.0000 C   0  0  0  0  0  0  0  0  0  0  0  0
   -4.8000   -2.7713    0.0000 H   0  0  0  0  0  0  0  0  0  0  0  0
   -2.4000   -1.3857    0.0000 C   0  0  0  0  0  0  0  0  0  0  0  0
   -1.6000   -2.7713    0.0000 H   0  0  0  0  0  0  0  0  0  0  0  0
  1  2  1  0  0  0  0
  2  3  1  0  0  0  0
  2  4  1  0  0  0  0
  4  5  1  0  0  0  0
  4  6  1  0  0  0  0
  4  7  1  0  0  0  0
  7  8  1  0  0  0  0
  7  9  1  0  0  0  0
  7 10  1  0  0  0  0
  2 11  1  0  0  0  0
 11 12  1  0  0  0  0
 11 13  1  0  0  0  0
 11 14  1  0  0  0  0
  1 15  1  0  0  0  0
 15 16  1  0  0  0  0
 15 17  2  0  0  0  0
 17 18  1  0  0  0  0
 17 19  1  0  0  0  0
 19 20  1  0  0  0  0
 19 21  2  0  0  0  0
 21 22  1  0  0  0  0
 21 23  1  0  0  0  0
 23  1  2  0  0  0  0
 23 24  1  0  0  0  0
M  END
> <ChemID>
101434

> <source_casrn>
135-98-8

> <CAS>
135-98-8

> <SMILES>
CCC(C)c1ccccc1

> <NAME>
SEC-BUTYLBENZENE

> <preferred_name>
sec-Butylbenzene

> <iupac>
butan-2-ylbenzene

> <MPID>
20496

> <dsstox_substance_id>
DTXSID2022333

> <Canonical_QSARr>
CCC(C)c1ccccc1

> <InChI_Code_QSARr>
InChI=1S/C10H14/c1-3-9(2)10-7-5-4-6-8-10/h4-9H,3H2,1-2H3

> <InChI Key_QSARr>
ZJMWRROPUADPEA-UHFFFAOYSA-N

> <Salt_Solvent>
?

> <BP>
173.5

$$$$
101438
  -INDIGO-08031720192D

 16 16  0  0  0  0  0  0  0  0999 V2000
    0.0000    1.6000    0.0000 C   0  0  0  0  0  0  0  0  0  0  0  0
    1.3856    2.4000    0.0000 C   0  0  0  0  0  0  0  0  0  0  0  0
    1.3856    4.0000    0.0000 H   0  0  0  0  0  0  0  0  0  0  0  0
    2.7713    1.6000    0.0000 C   0  0  0  0  0  0  0  0  0  0  0  0
    4.1569    2.4000    0.0000 H   0  0  0  0  0  0  0  0  0  0  0  0
    2.7713    0.0000    0.0000 C   0  0  0  0  0  0  0  0  0  0  0  0
    4.1569   -0.8000    0.0000 H   0  0  0  0  0  0  0  0  0  0  0  0
    1.3856   -0.8000    0.0000 C   0  0  0  0  0  0  0  0  0  0  0  0
    1.3856   -2.4000    0.0000 H   0  0  0  0  0  0  0  0  0  0  0  0
    0.0000    0.0000    0.0000 C   0  0  0  0  0  0  0  0  0  0  0  0
   -1.3856   -0.8000    0.0000 C   0  0  0  0  0  0  0  0  0  0  0  0
   -2.7713   -1.6000    0.0000 H   0  0  0  0  0  0  0  0  0  0  0  0
   -1.3856   -2.4000    0.0000 H   0  0  0  0  0  0  0  0  0  0  0  0
   -2.7713    0.0000    0.0000 H   0  0  0  0  0  0  0  0  0  0  0  0
   -1.3856    2.4000    0.0000 S   0  0  0  0  0  0  0  0  0  0  0  0
   -1.3856    4.0000    0.0000 H   0  0  0  0  0  0  0  0  0  0  0  0
  1  2  1  0  0  0  0
  2  3  1  0  0  0  0
  2  4  2  0  0  0  0
  4  5  1  0  0  0  0
  4  6  1  0  0  0  0
  6  7  1  0  0  0  0
  6  8  2  0  0  0  0
  8  9  1  0  0  0  0
  8 10  1  0  0  0  0
 10  1  2  0  0  0  0
 10 11  1  0  0  0  0
 11 12  1  0  0  0  0
 11 13  1  0  0  0  0
 11 14  1  0  0  0  0
  1 15  1  0  0  0  0
 15 16  1  0  0  0  0
M  END
> <ChemID>
101438

> <source_casrn>
137-06-4

> <CAS>
137-06-4

> <SMILES>
Cc1ccccc1S

> <NAME>
2-METHYLBENZENETHIOL

> <preferred_name>
2-Methylbenzenethiol

> <iupac>
2-methylbenzenethiol

> <MPID>
20500

> <dsstox_substance_id>
DTXSID8047135

> <Canonical_QSARr>
Cc1ccccc1S

> <InChI_Code_QSARr>
InChI=1S/C7H8S/c1-6-4-2-3-5-7(6)8/h2-5,8H,1H3

> <InChI Key_QSARr>
LXUNZSDDXMPKLP-UHFFFAOYSA-N

> <Salt_Solvent>
?

> <BP>
195.0

$$$$
101442
  -INDIGO-08031720192D

 18 17  0  0  0  0  0  0  0  0999 V2000
    1.3856   -0.8000    0.0000 C   0  0  0  0  0  0  0  0  0  0  0  0
    1.9979   -2.2782    0.0000 H   0  0  0  0  0  0  0  0  0  0  0  0
    0.7733   -2.2782    0.0000 H   0  0  0  0  0  0  0  0  0  0  0  0
   -0.0001    0.0000    0.0000 C   0  0  0  0  0  0  0  0  0  0  0  0
   -0.8000   -1.3857    0.0000 H   0  0  0  0  0  0  0  0  0  0  0  0
   -1.5035    0.5472    0.0000 C   0  0  0  0  0  0  0  0  0  0  0  0
   -1.1572    2.1093    0.0000 H   0  0  0  0  0  0  0  0  0  0  0  0
   -2.3631    1.8967    0.0000 H   0  0  0  0  0  0  0  0  0  0  0  0
   -2.7291   -0.4812    0.0000 C   0  0  0  0  0  0  0  0  0  0  0  0
   -3.9549   -1.5097    0.0000 H   0  0  0  0  0  0  0  0  0  0  0  0
   -4.2327    0.0660    0.0000 H   0  0  0  0  0  0  0  0  0  0  0  0
   -2.4513   -2.0569    0.0000 H   0  0  0  0  0  0  0  0  0  0  0  0
    0.8001    1.3856    0.0000 C   0  0  0  0  0  0  0  0  0  0  0  0
    1.6000    2.7713    0.0000 H   0  0  0  0  0  0  0  0  0  0  0  0
    2.4000    1.3856    0.0000 H   0  0  0  0  0  0  0  0  0  0  0  0
   -0.0001    2.7713    0.0000 H   0  0  0  0  0  0  0  0  0  0  0  0
    2.7713    0.0000    0.0000 O   0  0  0  0  0  0  0  0  0  0  0  0
    4.1569   -0.8000    0.0000 H   0  0  0  0  0  0  0  0  0  0  0  0
  1  2  1  0  0  0  0
  1  3  1  0  0  0  0
  1  4  1  0  0  0  0
  4  5  1  0  0  0  0
  4  6  1  0  0  0  0
  6  7  1  0  0  0  0
  6  8  1  0  0  0  0
  6  9  1  0  0  0  0
  9 10  1  0  0  0  0
  9 11  1  0  0  0  0
  9 12  1  0  0  0  0
  4 13  1  0  0  0  0
 13 14  1  0  0  0  0
 13 15  1  0  0  0  0
 13 16  1  0  0  0  0
  1 17  1  0  0  0  0
 17 18  1  0  0  0  0
M  END
> <ChemID>
101442

> <source_casrn>
137-32-6

> <CAS>
137-32-6

> <SMILES>
CCC(C)CO

> <NAME>
2-METHYL-1-BUTANOL

> <preferred_name>
2-Methyl-1-butanol

> <iupac>
2-methylbutan-1-ol

> <MPID>
20504

> <dsstox_substance_id>
DTXSID5027069

> <Canonical_QSARr>
CCC(C)CO

> <InChI_Code_QSARr>
InChI=1S/C5H12O/c1-3-5(2)4-6/h5-6H,3-4H2,1-2H3

> <InChI Key_QSARr>
QPRQEDXDYOZYLA-UHFFFAOYSA-N

> <Salt_Solvent>
?

> <BP>
128.0

$$$$
101446
  -INDIGO-08031720192D

 29 29  0  0  0  0  0  0  0  0999 V2000
    3.2000    0.0000    0.0000 C   0  0  0  0  0  0  0  0  0  0  0  0
    4.4257    1.0284    0.0000 H   0  0  0  0  0  0  0  0  0  0  0  0
    2.4000    1.3857    0.0000 C   0  0  0  0  0  0  0  0  0  0  0  0
    3.9035    1.9329    0.0000 H   0  0  0  0  0  0  0  0  0  0  0  0
    2.1222    2.9613    0.0000 H   0  0  0  0  0  0  0  0  0  0  0  0
    0.8000    1.3857    0.0000 C   0  0  0  0  0  0  0  0  0  0  0  0
    1.0778    2.9613    0.0000 H   0  0  0  0  0  0  0  0  0  0  0  0
   -0.7035    1.9329    0.0000 H   0  0  0  0  0  0  0  0  0  0  0  0
    0.0000    0.0000    0.0000 C   0  0  0  0  0  0  0  0  0  0  0  0
   -1.2257    1.0284    0.0000 C   0  0  0  0  0  0  0  0  0  0  0  0
   -2.4514    2.0569    0.0000 H   0  0  0  0  0  0  0  0  0  0  0  0
   -2.7292    0.4812    0.0000 H   0  0  0  0  0  0  0  0  0  0  0  0
   -1.5035    2.6042    0.0000 H   0  0  0  0  0  0  0  0  0  0  0  0
   -1.2257   -1.0284    0.0000 O   0  0  0  0  0  0  0  0  0  0  0  0
   -2.7292   -0.4812    0.0000 H   0  0  0  0  0  0  0  0  0  0  0  0
    0.8000   -1.3857    0.0000 C   0  0  0  0  0  0  0  0  0  0  0  0
   -0.7035   -1.9329    0.0000 H   0  0  0  0  0  0  0  0  0  0  0  0
    1.0778   -2.9613    0.0000 H   0  0  0  0  0  0  0  0  0  0  0  0
    2.4000   -1.3857    0.0000 C   0  0  0  0  0  0  0  0  0  0  0  0
    2.1222   -2.9613    0.0000 H   0  0  0  0  0  0  0  0  0  0  0  0
    3.9035   -1.9329    0.0000 H   0  0  0  0  0  0  0  0  0  0  0  0
    4.5856   -0.8000    0.0000 C   0  0  0  0  0  0  0  0  0  0  0  0
    4.8635   -2.3757    0.0000 C   0  0  0  0  0  0  0  0  0  0  0  0
    6.3670   -2.9230    0.0000 H   0  0  0  0  0  0  0  0  0  0  0  0
    3.6378   -3.4042    0.0000 H   0  0  0  0  0  0  0  0  0  0  0  0
    5.9713    0.0000    0.0000 C   0  0  0  0  0  0  0  0  0  0  0  0
    7.3569    0.8000    0.0000 H   0  0  0  0  0  0  0  0  0  0  0  0
    7.3569   -0.8000    0.0000 H   0  0  0  0  0  0  0  0  0  0  0  0
    5.9713    1.6000    0.0000 H   0  0  0  0  0  0  0  0  0  0  0  0
  1  2  1  0  0  0  0
  1  3  1  0  0  0  0
  3  4  1  0  0  0  0
  3  5  1  0  0  0  0
  3  6  1  0  0  0  0
  6  7  1  0  0  0  0
  6  8  1  0  0  0  0
  6  9  1  0  0  0  0
  9 10  1  0  0  0  0
 10 11  1  0  0  0  0
 10 12  1  0  0  0  0
 10 13  1  0  0  0  0
  9 14  1  0  0  0  0
 14 15  1  0  0  0  0
  9 16  1  0  0  0  0
 16 17  1  0  0  0  0
 16 18  1  0  0  0  0
 16 19  1  0  0  0  0
 19  1  1  0  0  0  0
 19 20  1  0  0  0  0
 19 21  1  0  0  0  0
  1 22  1  0  0  0  0
 22 23  2  0  0  0  0
 23 24  1  0  0  0  0
 23 25  1  0  0  0  0
 22 26  1  0  0  0  0
 26 27  1  0  0  0  0
 26 28  1  0  0  0  0
 26 29  1  0  0  0  0
M  END
> <ChemID>
101446

> <source_casrn>
138-87-4

> <CAS>
138-87-4

> <SMILES>
CC(=C)C1CCC(C)(O)CC1

> <NAME>
BETA-TERPINEOL

> <preferred_name>
beta-Terpineol

> <iupac>
1-methyl-4-(prop-1-en-2-yl)cyclohexanol

> <MPID>
20508

> <dsstox_substance_id>
DTXSID7041209

> <Canonical_QSARr>
CC(=C)C1CCC(C)(O)CC1

> <InChI_Code_QSARr>
InChI=1S/C10H18O/c1-8(2)9-4-6-10(3,11)7-5-9/h9,11H,1,4-7H2,2-3H3

> <InChI Key_QSARr>
RUJPNZNXGCHGID-UHFFFAOYSA-N

> <Salt_Solvent>
?

> <BP>
210.0

$$$$
101450
  -INDIGO-08031720192D

 19 19  0  0  0  0  0  0  0  0999 V2000
    0.0001   -0.0000    0.0000 C   0  0  0  0  0  0  0  0  0  0  0  0
    1.3857    0.8000    0.0000 C   0  0  0  0  0  0  0  0  0  0  0  0
    1.3857    2.4000    0.0000 H   0  0  0  0  0  0  0  0  0  0  0  0
    2.7712   -0.0000    0.0000 C   0  0  0  0  0  0  0  0  0  0  0  0
    2.7712   -1.6000    0.0000 H   0  0  0  0  0  0  0  0  0  0  0  0
    4.1569    0.8000    0.0000 C   0  0  0  0  0  0  0  0  0  0  0  0
    5.5425   -0.0000    0.0000 O   0  0  0  0  0  0  0  0  0  0  0  0
    6.9282    0.8000    0.0000 H   0  0  0  0  0  0  0  0  0  0  0  0
    4.1569    2.4000    0.0000 O   0  0  0  0  0  0  0  0  0  0  0  0
    0.0001   -1.6000    0.0000 C   0  0  0  0  0  0  0  0  0  0  0  0
    1.3857   -2.4000    0.0000 H   0  0  0  0  0  0  0  0  0  0  0  0
   -1.3856   -2.4000    0.0000 C   0  0  0  0  0  0  0  0  0  0  0  0
   -1.3856   -4.0000    0.0000 H   0  0  0  0  0  0  0  0  0  0  0  0
   -2.7713   -1.6000    0.0000 C   0  0  0  0  0  0  0  0  0  0  0  0
   -4.1569   -2.4000    0.0000 H   0  0  0  0  0  0  0  0  0  0  0  0
   -2.7713   -0.0000    0.0000 C   0  0  0  0  0  0  0  0  0  0  0  0
   -4.1569    0.8000    0.0000 H   0  0  0  0  0  0  0  0  0  0  0  0
   -1.3856    0.8000    0.0000 C   0  0  0  0  0  0  0  0  0  0  0  0
   -1.3856    2.4000    0.0000 H   0  0  0  0  0  0  0  0  0  0  0  0
  1  2  1  0  0  0  0
  2  3  1  0  0  0  0
  2  4  2  0  0  0  0
  4  5  1  0  0  0  0
  4  6  1  0  0  0  0
  6  7  1  0  0  0  0
  7  8  1  0  0  0  0
  6  9  2  0  0  0  0
  1 10  1  0  0  0  0
 10 11  1  0  0  0  0
 10 12  2  0  0  0  0
 12 13  1  0  0  0  0
 12 14  1  0  0  0  0
 14 15  1  0  0  0  0
 14 16  2  0  0  0  0
 16 17  1  0  0  0  0
 16 18  1  0  0  0  0
 18  1  2  0  0  0  0
 18 19  1  0  0  0  0
M  END
> <ChemID>
101450

> <source_casrn>
140-10-3|621-82-9

> <CAS>
140-10-3|621-82-9

> <SMILES>
OC(=O)/C=C/c1ccccc1

> <NAME>
2-PROPENOIC ACID, 3-PHENYL-, (E)-, CINNAMIC ACID

> <preferred_name>
E-Cinnamic acid

> <iupac>
(2E)-3-phenylprop-2-enoic acid

> <MPID>
20512|21793

> <dsstox_substance_id>
DTXSID5022489|DTXSID40110056

> <Canonical_QSARr>
OC(=O)C=Cc1ccccc1

> <InChI_Code_QSARr>
InChI=1S/C9H8O2/c10-9(11)7-6-8-4-2-1-3-5-8/h1-7H,(H,10,11)/b7-6+

> <InChI Key_QSARr>
WBYWAXJHAXSJNI-VOTSOKGWSA-N

> <Salt_Solvent>
?

> <BP>
300.0

$$$$
101454
  -INDIGO-08031720192D

 21 21  0  0  0  0  0  0  0  0999 V2000
    7.2000    1.3856    0.0000 C   0  0  0  0  0  0  0  0  0  0  0  0
    8.8000    1.3856    0.0000 H   0  0  0  0  0  0  0  0  0  0  0  0
    8.0000    2.7713    0.0000 H   0  0  0  0  0  0  0  0  0  0  0  0
    8.0000   -0.0000    0.0000 H   0  0  0  0  0  0  0  0  0  0  0  0
    5.6000    1.3856    0.0000 C   0  0  0  0  0  0  0  0  0  0  0  0
    4.8000    2.7713    0.0000 O   0  0  0  0  0  0  0  0  0  0  0  0
    4.8000   -0.0000    0.0000 O   0  0  0  0  0  0  0  0  0  0  0  0
    3.2000   -0.0000    0.0000 C   0  0  0  0  0  0  0  0  0  0  0  0
    2.4000    1.3856    0.0000 C   0  0  0  0  0  0  0  0  0  0  0  0
    3.2000    2.7713    0.0000 H   0  0  0  0  0  0  0  0  0  0  0  0
    0.8000    1.3856    0.0000 C   0  0  0  0  0  0  0  0  0  0  0  0
    0.0000    2.7713    0.0000 H   0  0  0  0  0  0  0  0  0  0  0  0
    0.0000   -0.0000    0.0000 C   0  0  0  0  0  0  0  0  0  0  0  0
   -1.6000   -0.0000    0.0000 C   0  0  0  0  0  0  0  0  0  0  0  0
   -3.2000   -0.0000    0.0000 H   0  0  0  0  0  0  0  0  0  0  0  0
   -2.4000   -1.3856    0.0000 H   0  0  0  0  0  0  0  0  0  0  0  0
   -2.4000    1.3856    0.0000 H   0  0  0  0  0  0  0  0  0  0  0  0
    0.8000   -1.3856    0.0000 C   0  0  0  0  0  0  0  0  0  0  0  0
    0.0000   -2.7713    0.0000 H   0  0  0  0  0  0  0  0  0  0  0  0
    2.4000   -1.3856    0.0000 C   0  0  0  0  0  0  0  0  0  0  0  0
    3.2000   -2.7713    0.0000 H   0  0  0  0  0  0  0  0  0  0  0  0
  1  2  1  0  0  0  0
  1  3  1  0  0  0  0
  1  4  1  0  0  0  0
  1  5  1  0  0  0  0
  5  6  2  0  0  0  0
  5  7  1  0  0  0  0
  7  8  1  0  0  0  0
  8  9  1  0  0  0  0
  9 10  1  0  0  0  0
  9 11  2  0  0  0  0
 11 12  1  0  0  0  0
 11 13  1  0  0  0  0
 13 14  1  0  0  0  0
 14 15  1  0  0  0  0
 14 16  1  0  0  0  0
 14 17  1  0  0  0  0
 13 18  2  0  0  0  0
 18 19  1  0  0  0  0
 18 20  1  0  0  0  0
 20  8  2  0  0  0  0
 20 21  1  0  0  0  0
M  END
> <ChemID>
101454

> <source_casrn>
140-39-6

> <CAS>
140-39-6

> <SMILES>
Cc1ccc(cc1)OC(C)=O

> <NAME>
P-TOLYLACETATE

> <preferred_name>
4-Tolyl acetate

> <iupac>
4-methylphenyl acetate

> <MPID>
20516

> <dsstox_substance_id>
DTXSID0046567

> <Canonical_QSARr>
Cc1ccc(cc1)OC(C)=O

> <InChI_Code_QSARr>
InChI=1S/C9H10O2/c1-7-3-5-9(6-4-7)11-8(2)10/h3-6H,1-2H3

> <InChI Key_QSARr>
CDJJKTLOZJAGIZ-UHFFFAOYSA-N

> <Salt_Solvent>
?

> <BP>
212.5

$$$$
101458
  -INDIGO-08031720192D

 30 29  0  0  0  0  0  0  0  0999 V2000
   -3.2000    0.0000    0.0000 O   0  0  0  0  0  0  0  0  0  0  0  0
   -2.4000   -1.3856    0.0000 C   0  0  0  0  0  0  0  0  0  0  0  0
   -2.6089   -2.9720    0.0000 H   0  0  0  0  0  0  0  0  0  0  0  0
   -3.6693   -2.3596    0.0000 H   0  0  0  0  0  0  0  0  0  0  0  0
   -0.8000   -1.3856    0.0000 C   0  0  0  0  0  0  0  0  0  0  0  0
   -0.5911   -2.9720    0.0000 H   0  0  0  0  0  0  0  0  0  0  0  0
    0.4693   -2.3596    0.0000 H   0  0  0  0  0  0  0  0  0  0  0  0
    0.0000    0.0000    0.0000 N   0  0  0  0  0  0  0  0  0  0  0  0
   -0.8000    1.3857    0.0000 C   0  0  0  0  0  0  0  0  0  0  0  0
   -2.2782    1.9980    0.0000 H   0  0  0  0  0  0  0  0  0  0  0  0
   -2.2782    0.7733    0.0000 H   0  0  0  0  0  0  0  0  0  0  0  0
    0.0000    2.7713    0.0000 C   0  0  0  0  0  0  0  0  0  0  0  0
    0.8000    4.1569    0.0000 H   0  0  0  0  0  0  0  0  0  0  0  0
   -0.8000    4.1569    0.0000 H   0  0  0  0  0  0  0  0  0  0  0  0
    1.6000    2.7713    0.0000 H   0  0  0  0  0  0  0  0  0  0  0  0
    1.6000    0.0000    0.0000 C   0  0  0  0  0  0  0  0  0  0  0  0
    2.8693    0.9740    0.0000 H   0  0  0  0  0  0  0  0  0  0  0  0
    1.8089    1.5863    0.0000 H   0  0  0  0  0  0  0  0  0  0  0  0
    2.4000   -1.3856    0.0000 C   0  0  0  0  0  0  0  0  0  0  0  0
    3.2000   -2.7713    0.0000 H   0  0  0  0  0  0  0  0  0  0  0  0
    4.0000   -1.3856    0.0000 H   0  0  0  0  0  0  0  0  0  0  0  0
    1.6000   -2.7713    0.0000 H   0  0  0  0  0  0  0  0  0  0  0  0
   -4.8000    0.0000    0.0000 C   0  0  0  0  0  0  0  0  0  0  0  0
   -5.0089   -1.5863    0.0000 H   0  0  0  0  0  0  0  0  0  0  0  0
   -6.0693   -0.9740    0.0000 H   0  0  0  0  0  0  0  0  0  0  0  0
   -5.6000    1.3857    0.0000 C   0  0  0  0  0  0  0  0  0  0  0  0
   -5.3911    2.9720    0.0000 H   0  0  0  0  0  0  0  0  0  0  0  0
   -4.3307    2.3597    0.0000 H   0  0  0  0  0  0  0  0  0  0  0  0
   -7.2000    1.3857    0.0000 O   0  0  0  0  0  0  0  0  0  0  0  0
   -8.0000    2.7713    0.0000 H   0  0  0  0  0  0  0  0  0  0  0  0
  1  2  1  0  0  0  0
  2  3  1  0  0  0  0
  2  4  1  0  0  0  0
  2  5  1  0  0  0  0
  5  6  1  0  0  0  0
  5  7  1  0  0  0  0
  5  8  1  0  0  0  0
  8  9  1  0  0  0  0
  9 10  1  0  0  0  0
  9 11  1  0  0  0  0
  9 12  1  0  0  0  0
 12 13  1  0  0  0  0
 12 14  1  0  0  0  0
 12 15  1  0  0  0  0
  8 16  1  0  0  0  0
 16 17  1  0  0  0  0
 16 18  1  0  0  0  0
 16 19  1  0  0  0  0
 19 20  1  0  0  0  0
 19 21  1  0  0  0  0
 19 22  1  0  0  0  0
  1 23  1  0  0  0  0
 23 24  1  0  0  0  0
 23 25  1  0  0  0  0
 23 26  1  0  0  0  0
 26 27  1  0  0  0  0
 26 28  1  0  0  0  0
 26 29  1  0  0  0  0
 29 30  1  0  0  0  0
M  END
> <ChemID>
101458

> <source_casrn>
140-82-9

> <CAS>
140-82-9

> <SMILES>
CCN(CCOCCO)CC

> <NAME>
Ethanol, 2- 2-(diethylamino)ethoxy -

> <preferred_name>
2-[2-(Diethylamino)ethoxy]ethanol

> <iupac>
2-(2-diethylaminoethoxy)ethanol

> <MPID>
20520

> <dsstox_substance_id>
DTXSID9059701

> <Canonical_QSARr>
CCN(CCOCCO)CC

> <InChI_Code_QSARr>
InChI=1S/C8H19NO2/c1-3-9(4-2)5-7-11-8-6-10/h10H,3-8H2,1-2H3

> <InChI Key_QSARr>
VKBVRNHODPFVHK-UHFFFAOYSA-N

> <Salt_Solvent>
?

> <BP>
221.5

$$$$
101462
  -INDIGO-08031720192D

 44 43  0  0  0  0  0  0  0  0999 V2000
    4.1569   -0.8000    0.0000 C   0  0  0  0  0  0  0  0  0  0  0  0
    5.5426    0.0000    0.0000 C   0  0  0  0  0  0  0  0  0  0  0  0
    6.1550    1.4782    0.0000 H   0  0  0  0  0  0  0  0  0  0  0  0
    4.9301    1.4782    0.0000 H   0  0  0  0  0  0  0  0  0  0  0  0
    6.9282   -0.8000    0.0000 C   0  0  0  0  0  0  0  0  0  0  0  0
    6.3158   -2.2782    0.0000 H   0  0  0  0  0  0  0  0  0  0  0  0
    7.5406   -2.2782    0.0000 H   0  0  0  0  0  0  0  0  0  0  0  0
    8.3138    0.0000    0.0000 C   0  0  0  0  0  0  0  0  0  0  0  0
    8.9263    1.4782    0.0000 H   0  0  0  0  0  0  0  0  0  0  0  0
    7.7014    1.4782    0.0000 H   0  0  0  0  0  0  0  0  0  0  0  0
    9.6995   -0.8000    0.0000 C   0  0  0  0  0  0  0  0  0  0  0  0
    9.0871   -2.2782    0.0000 H   0  0  0  0  0  0  0  0  0  0  0  0
   10.3119   -2.2782    0.0000 H   0  0  0  0  0  0  0  0  0  0  0  0
   11.0851    0.0000    0.0000 C   0  0  0  0  0  0  0  0  0  0  0  0
   12.4708   -0.8000    0.0000 O   0  0  0  0  0  0  0  0  0  0  0  0
   13.8564    0.0000    0.0000 C   0  0  0  0  0  0  0  0  0  0  0  0
   14.4688    1.4782    0.0000 H   0  0  0  0  0  0  0  0  0  0  0  0
   13.2440    1.4782    0.0000 H   0  0  0  0  0  0  0  0  0  0  0  0
   15.2420   -0.8000    0.0000 C   0  0  0  0  0  0  0  0  0  0  0  0
   16.0419    0.5857    0.0000 H   0  0  0  0  0  0  0  0  0  0  0  0
   16.6277   -1.6000    0.0000 C   0  0  0  0  0  0  0  0  0  0  0  0
   18.0133   -2.4000    0.0000 H   0  0  0  0  0  0  0  0  0  0  0  0
   16.6277   -3.2000    0.0000 H   0  0  0  0  0  0  0  0  0  0  0  0
   18.0133   -0.8000    0.0000 H   0  0  0  0  0  0  0  0  0  0  0  0
   14.4422   -2.1857    0.0000 C   0  0  0  0  0  0  0  0  0  0  0  0
   13.6420   -3.5713    0.0000 H   0  0  0  0  0  0  0  0  0  0  0  0
   12.8422   -2.1857    0.0000 H   0  0  0  0  0  0  0  0  0  0  0  0
   15.2420   -3.5713    0.0000 H   0  0  0  0  0  0  0  0  0  0  0  0
   11.0851    1.6000    0.0000 O   0  0  0  0  0  0  0  0  0  0  0  0
    2.7713    0.0000    0.0000 O   0  0  0  0  0  0  0  0  0  0  0  0
    1.3856   -0.8000    0.0000 C   0  0  0  0  0  0  0  0  0  0  0  0
    0.7732   -2.2782    0.0000 H   0  0  0  0  0  0  0  0  0  0  0  0
    1.9981   -2.2782    0.0000 H   0  0  0  0  0  0  0  0  0  0  0  0
    0.0000    0.0000    0.0000 C   0  0  0  0  0  0  0  0  0  0  0  0
   -0.7999   -1.3857    0.0000 H   0  0  0  0  0  0  0  0  0  0  0  0
   -1.3856    0.8000    0.0000 C   0  0  0  0  0  0  0  0  0  0  0  0
   -2.7713    1.6000    0.0000 H   0  0  0  0  0  0  0  0  0  0  0  0
   -2.7713    0.0000    0.0000 H   0  0  0  0  0  0  0  0  0  0  0  0
   -1.3856    2.4000    0.0000 H   0  0  0  0  0  0  0  0  0  0  0  0
    0.7999    1.3857    0.0000 C   0  0  0  0  0  0  0  0  0  0  0  0
    1.6000    2.7713    0.0000 H   0  0  0  0  0  0  0  0  0  0  0  0
    2.3999    1.3857    0.0000 H   0  0  0  0  0  0  0  0  0  0  0  0
    0.0000    2.7713    0.0000 H   0  0  0  0  0  0  0  0  0  0  0  0
    4.1569   -2.4000    0.0000 O   0  0  0  0  0  0  0  0  0  0  0  0
  1  2  1  0  0  0  0
  2  3  1  0  0  0  0
  2  4  1  0  0  0  0
  2  5  1  0  0  0  0
  5  6  1  0  0  0  0
  5  7  1  0  0  0  0
  5  8  1  0  0  0  0
  8  9  1  0  0  0  0
  8 10  1  0  0  0  0
  8 11  1  0  0  0  0
 11 12  1  0  0  0  0
 11 13  1  0  0  0  0
 11 14  1  0  0  0  0
 14 15  1  0  0  0  0
 15 16  1  0  0  0  0
 16 17  1  0  0  0  0
 16 18  1  0  0  0  0
 16 19  1  0  0  0  0
 19 20  1  0  0  0  0
 19 21  1  0  0  0  0
 21 22  1  0  0  0  0
 21 23  1  0  0  0  0
 21 24  1  0  0  0  0
 19 25  1  0  0  0  0
 25 26  1  0  0  0  0
 25 27  1  0  0  0  0
 25 28  1  0  0  0  0
 14 29  2  0  0  0  0
  1 30  1  0  0  0  0
 30 31  1  0  0  0  0
 31 32  1  0  0  0  0
 31 33  1  0  0  0  0
 31 34  1  0  0  0  0
 34 35  1  0  0  0  0
 34 36  1  0  0  0  0
 36 37  1  0  0  0  0
 36 38  1  0  0  0  0
 36 39  1  0  0  0  0
 34 40  1  0  0  0  0
 40 41  1  0  0  0  0
 40 42  1  0  0  0  0
 40 43  1  0  0  0  0
  1 44  2  0  0  0  0
M  END
> <ChemID>
101462

> <source_casrn>
141-04-8

> <CAS>
141-04-8

> <SMILES>
CC(C)COC(=O)CCCCC(=O)OCC(C)C

> <NAME>
DIISOBUTYL ADIPATE

> <preferred_name>
Diisobutyl adipate

> <iupac>
bis(2-methylpropyl) hexanedioate

> <MPID>
20524

> <dsstox_substance_id>
DTXSID9036690

> <Canonical_QSARr>
CC(C)COC(=O)CCCCC(=O)OCC(C)C

> <InChI_Code_QSARr>
InChI=1S/C14H26O4/c1-11(2)9-17-13(15)7-5-6-8-14(16)18-10-12(3)4/h11-12H,5-10H2,1-4H3

> <InChI Key_QSARr>
RDOFJDLLWVCMRU-UHFFFAOYSA-N

> <Salt_Solvent>
?

> <BP>
279.0

$$$$
101467
  -INDIGO-08031720192D

 32 31  0  0  0  0  0  0  0  0999 V2000
    6.9282   -0.8000    0.0000 C   0  0  0  0  0  0  0  0  0  0  0  0
    8.3138   -1.6000    0.0000 H   0  0  0  0  0  0  0  0  0  0  0  0
    8.3138    0.0000    0.0000 H   0  0  0  0  0  0  0  0  0  0  0  0
    6.9282   -2.4000    0.0000 H   0  0  0  0  0  0  0  0  0  0  0  0
    5.5426    0.0000    0.0000 C   0  0  0  0  0  0  0  0  0  0  0  0
    6.1548    1.4782    0.0000 H   0  0  0  0  0  0  0  0  0  0  0  0
    4.9302    1.4782    0.0000 H   0  0  0  0  0  0  0  0  0  0  0  0
    4.1570   -0.8000    0.0000 O   0  0  0  0  0  0  0  0  0  0  0  0
    2.7712    0.0000    0.0000 C   0  0  0  0  0  0  0  0  0  0  0  0
    2.7712    1.6000    0.0000 O   0  0  0  0  0  0  0  0  0  0  0  0
    1.3856   -0.8000    0.0000 C   0  0  0  0  0  0  0  0  0  0  0  0
    0.7735   -2.2782    0.0000 H   0  0  0  0  0  0  0  0  0  0  0  0
    1.9980   -2.2782    0.0000 H   0  0  0  0  0  0  0  0  0  0  0  0
   -0.0000    0.0000    0.0000 C   0  0  0  0  0  0  0  0  0  0  0  0
    0.6124    1.4782    0.0000 H   0  0  0  0  0  0  0  0  0  0  0  0
   -0.6124    1.4782    0.0000 H   0  0  0  0  0  0  0  0  0  0  0  0
   -1.3856   -0.8000    0.0000 C   0  0  0  0  0  0  0  0  0  0  0  0
   -1.9980   -2.2782    0.0000 H   0  0  0  0  0  0  0  0  0  0  0  0
   -0.7732   -2.2782    0.0000 H   0  0  0  0  0  0  0  0  0  0  0  0
   -2.7712    0.0000    0.0000 C   0  0  0  0  0  0  0  0  0  0  0  0
   -2.1591    1.4782    0.0000 H   0  0  0  0  0  0  0  0  0  0  0  0
   -3.3836    1.4782    0.0000 H   0  0  0  0  0  0  0  0  0  0  0  0
   -4.1568   -0.8000    0.0000 C   0  0  0  0  0  0  0  0  0  0  0  0
   -4.1568   -2.4000    0.0000 O   0  0  0  0  0  0  0  0  0  0  0  0
   -5.5427    0.0000    0.0000 O   0  0  0  0  0  0  0  0  0  0  0  0
   -6.9283   -0.8000    0.0000 C   0  0  0  0  0  0  0  0  0  0  0  0
   -7.5404   -2.2782    0.0000 H   0  0  0  0  0  0  0  0  0  0  0  0
   -6.3159   -2.2782    0.0000 H   0  0  0  0  0  0  0  0  0  0  0  0
   -8.3139    0.0000    0.0000 C   0  0  0  0  0  0  0  0  0  0  0  0
   -9.6995    0.8000    0.0000 H   0  0  0  0  0  0  0  0  0  0  0  0
   -9.6995   -0.8000    0.0000 H   0  0  0  0  0  0  0  0  0  0  0  0
   -8.3139    1.6000    0.0000 H   0  0  0  0  0  0  0  0  0  0  0  0
  1  2  1  0  0  0  0
  1  3  1  0  0  0  0
  1  4  1  0  0  0  0
  1  5  1  0  0  0  0
  5  6  1  0  0  0  0
  5  7  1  0  0  0  0
  5  8  1  0  0  0  0
  8  9  1  0  0  0  0
  9 10  2  0  0  0  0
  9 11  1  0  0  0  0
 11 12  1  0  0  0  0
 11 13  1  0  0  0  0
 11 14  1  0  0  0  0
 14 15  1  0  0  0  0
 14 16  1  0  0  0  0
 14 17  1  0  0  0  0
 17 18  1  0  0  0  0
 17 19  1  0  0  0  0
 17 20  1  0  0  0  0
 20 21  1  0  0  0  0
 20 22  1  0  0  0  0
 20 23  1  0  0  0  0
 23 24  2  0  0  0  0
 23 25  1  0  0  0  0
 25 26  1  0  0  0  0
 26 27  1  0  0  0  0
 26 28  1  0  0  0  0
 26 29  1  0  0  0  0
 29 30  1  0  0  0  0
 29 31  1  0  0  0  0
 29 32  1  0  0  0  0
M  END
> <ChemID>
101467

> <source_casrn>
141-28-6

> <CAS>
141-28-6

> <SMILES>
CCOC(=O)CCCCC(=O)OCC

> <NAME>
DIETHYLHEXANEDIOATE

> <preferred_name>
Diethyl hexanedioate

> <iupac>
diethyl hexanedioate

> <MPID>
20529

> <dsstox_substance_id>
DTXSID2021999

> <Canonical_QSARr>
CCOC(=O)CCCCC(=O)OCC

> <InChI_Code_QSARr>
InChI=1S/C10H18O4/c1-3-13-9(11)7-5-6-8-10(12)14-4-2/h3-8H2,1-2H3

> <InChI Key_QSARr>
VIZORQUEIQEFRT-UHFFFAOYSA-N

> <Salt_Solvent>
?

> <BP>
245.0

$$$$
101471
  -INDIGO-08031720192D

 27 26  0  0  0  0  0  0  0  0999 V2000
    0.0000    0.0000    0.0000 C   0  0  0  0  0  0  0  0  0  0  0  0
    1.3856   -0.8000    0.0000 C   0  0  0  0  0  0  0  0  0  0  0  0
    1.9979   -2.2782    0.0000 H   0  0  0  0  0  0  0  0  0  0  0  0
    0.7734   -2.2782    0.0000 H   0  0  0  0  0  0  0  0  0  0  0  0
    2.7712    0.0000    0.0000 C   0  0  0  0  0  0  0  0  0  0  0  0
    4.1570    0.8000    0.0000 C   0  0  0  0  0  0  0  0  0  0  0  0
    5.5426    1.6000    0.0000 H   0  0  0  0  0  0  0  0  0  0  0  0
    5.5426    0.0000    0.0000 H   0  0  0  0  0  0  0  0  0  0  0  0
    4.1570    2.4000    0.0000 H   0  0  0  0  0  0  0  0  0  0  0  0
    1.9713    1.3856    0.0000 S   0  0  0  0  0  0  0  0  0  0  0  0
    2.7712    2.7713    0.0000 H   0  0  0  0  0  0  0  0  0  0  0  0
    3.5713   -1.3857    0.0000 C   0  0  0  0  0  0  0  0  0  0  0  0
    4.3713   -2.7713    0.0000 H   0  0  0  0  0  0  0  0  0  0  0  0
    3.0241   -2.8891    0.0000 H   0  0  0  0  0  0  0  0  0  0  0  0
    5.1713   -1.3857    0.0000 H   0  0  0  0  0  0  0  0  0  0  0  0
   -1.5035    0.5473    0.0000 C   0  0  0  0  0  0  0  0  0  0  0  0
   -3.0070    1.0944    0.0000 H   0  0  0  0  0  0  0  0  0  0  0  0
   -2.7291   -0.4813    0.0000 H   0  0  0  0  0  0  0  0  0  0  0  0
   -1.7814    2.1229    0.0000 H   0  0  0  0  0  0  0  0  0  0  0  0
    0.8000    1.3856    0.0000 C   0  0  0  0  0  0  0  0  0  0  0  0
    1.6000    2.7713    0.0000 H   0  0  0  0  0  0  0  0  0  0  0  0
    0.0000    2.7713    0.0000 H   0  0  0  0  0  0  0  0  0  0  0  0
   -0.8001    1.3856    0.0000 H   0  0  0  0  0  0  0  0  0  0  0  0
   -0.8001   -1.3857    0.0000 C   0  0  0  0  0  0  0  0  0  0  0  0
   -1.6000   -2.7713    0.0000 H   0  0  0  0  0  0  0  0  0  0  0  0
   -0.2528   -2.8891    0.0000 H   0  0  0  0  0  0  0  0  0  0  0  0
   -2.4000   -1.3857    0.0000 H   0  0  0  0  0  0  0  0  0  0  0  0
  1  2  1  0  0  0  0
  2  3  1  0  0  0  0
  2  4  1  0  0  0  0
  2  5  1  0  0  0  0
  5  6  1  0  0  0  0
  6  7  1  0  0  0  0
  6  8  1  0  0  0  0
  6  9  1  0  0  0  0
  5 10  1  0  0  0  0
 10 11  1  0  0  0  0
  5 12  1  0  0  0  0
 12 13  1  0  0  0  0
 12 14  1  0  0  0  0
 12 15  1  0  0  0  0
  1 16  1  0  0  0  0
 16 17  1  0  0  0  0
 16 18  1  0  0  0  0
 16 19  1  0  0  0  0
  1 20  1  0  0  0  0
 20 21  1  0  0  0  0
 20 22  1  0  0  0  0
 20 23  1  0  0  0  0
  1 24  1  0  0  0  0
 24 25  1  0  0  0  0
 24 26  1  0  0  0  0
 24 27  1  0  0  0  0
M  END
> <ChemID>
101471

> <source_casrn>
141-59-3

> <CAS>
141-59-3

> <SMILES>
CC(C)(C)CC(C)(C)S

> <NAME>
T-OCTYL MERCAPTAN

> <preferred_name>
2-Pentanethiol, 2,4,4-trimethyl-

> <iupac>
2,4,4-Trimethylpentane-2-thiol

> <MPID>
20533

> <dsstox_substance_id>
DTXSID9059707

> <Canonical_QSARr>
CC(C)(C)CC(C)(C)S

> <InChI_Code_QSARr>
InChI=1S/C8H18S/c1-7(2,3)6-8(4,5)9/h9H,6H2,1-5H3

> <InChI Key_QSARr>
QZLAEIZEPJAELS-UHFFFAOYSA-N

> <Salt_Solvent>
?

> <BP>
160.0

$$$$
101475
  -INDIGO-08031720192D

 14 13  0  0  0  0  0  0  0  0999 V2000
    4.1569    0.8000    0.0000 C   0  0  0  0  0  0  0  0  0  0  0  0
    5.5426    1.6000    0.0000 H   0  0  0  0  0  0  0  0  0  0  0  0
    5.5426    0.0000    0.0000 H   0  0  0  0  0  0  0  0  0  0  0  0
    4.1569    2.4000    0.0000 H   0  0  0  0  0  0  0  0  0  0  0  0
    2.7713    0.0000    0.0000 C   0  0  0  0  0  0  0  0  0  0  0  0
    2.7713   -1.6000    0.0000 O   0  0  0  0  0  0  0  0  0  0  0  0
    1.3857    0.8000    0.0000 O   0  0  0  0  0  0  0  0  0  0  0  0
    0.0000    0.0000    0.0000 C   0  0  0  0  0  0  0  0  0  0  0  0
   -0.6122   -1.4782    0.0000 H   0  0  0  0  0  0  0  0  0  0  0  0
    0.6122   -1.4782    0.0000 H   0  0  0  0  0  0  0  0  0  0  0  0
   -1.3856    0.8000    0.0000 C   0  0  0  0  0  0  0  0  0  0  0  0
   -2.7713    1.6000    0.0000 H   0  0  0  0  0  0  0  0  0  0  0  0
   -2.7713    0.0000    0.0000 H   0  0  0  0  0  0  0  0  0  0  0  0
   -1.3856    2.4000    0.0000 H   0  0  0  0  0  0  0  0  0  0  0  0
  1  2  1  0  0  0  0
  1  3  1  0  0  0  0
  1  4  1  0  0  0  0
  1  5  1  0  0  0  0
  5  6  2  0  0  0  0
  5  7  1  0  0  0  0
  7  8  1  0  0  0  0
  8  9  1  0  0  0  0
  8 10  1  0  0  0  0
  8 11  1  0  0  0  0
 11 12  1  0  0  0  0
 11 13  1  0  0  0  0
 11 14  1  0  0  0  0
M  END
> <ChemID>
101475

> <source_casrn>
141-78-6

> <CAS>
141-78-6

> <SMILES>
CCOC(C)=O

> <NAME>
ETHYL ACETATE

> <preferred_name>
Ethyl acetate

> <iupac>
ethyl acetate

> <MPID>
20537

> <dsstox_substance_id>
DTXSID1022001

> <Canonical_QSARr>
CCOC(C)=O

> <InChI_Code_QSARr>
InChI=1S/C4H8O2/c1-3-6-4(2)5/h3H2,1-2H3

> <InChI Key_QSARr>
XEKOWRVHYACXOJ-UHFFFAOYSA-N

> <Salt_Solvent>
?

> <BP>
77.1

$$$$
101479
  -INDIGO-08031720192D

 24 24  0  0  0  0  0  0  0  0999 V2000
    2.7713   -0.0000    0.0000 C   0  0  0  0  0  0  0  0  0  0  0  0
    4.1569    0.8000    0.0000 H   0  0  0  0  0  0  0  0  0  0  0  0
    4.1569   -0.8000    0.0000 H   0  0  0  0  0  0  0  0  0  0  0  0
    2.7713    1.6000    0.0000 H   0  0  0  0  0  0  0  0  0  0  0  0
    1.3856    0.8000    0.0000 C   0  0  0  0  0  0  0  0  0  0  0  0
    0.7733    2.2782    0.0000 H   0  0  0  0  0  0  0  0  0  0  0  0
    1.9979    2.2782    0.0000 H   0  0  0  0  0  0  0  0  0  0  0  0
   -0.0001   -0.0000    0.0000 C   0  0  0  0  0  0  0  0  0  0  0  0
   -1.3857    0.8000    0.0000 C   0  0  0  0  0  0  0  0  0  0  0  0
   -1.3857    2.4000    0.0000 H   0  0  0  0  0  0  0  0  0  0  0  0
   -2.7712   -0.0000    0.0000 C   0  0  0  0  0  0  0  0  0  0  0  0
   -4.1569    0.8000    0.0000 C   0  0  0  0  0  0  0  0  0  0  0  0
   -4.7692    2.2782    0.0000 H   0  0  0  0  0  0  0  0  0  0  0  0
   -3.5446    2.2782    0.0000 H   0  0  0  0  0  0  0  0  0  0  0  0
   -5.5425   -0.0000    0.0000 C   0  0  0  0  0  0  0  0  0  0  0  0
   -6.9282    0.8000    0.0000 H   0  0  0  0  0  0  0  0  0  0  0  0
   -6.9282   -0.8000    0.0000 H   0  0  0  0  0  0  0  0  0  0  0  0
   -5.5425    1.6000    0.0000 H   0  0  0  0  0  0  0  0  0  0  0  0
   -2.7712   -1.6000    0.0000 C   0  0  0  0  0  0  0  0  0  0  0  0
   -4.1569   -2.4000    0.0000 H   0  0  0  0  0  0  0  0  0  0  0  0
   -1.3856   -2.4000    0.0000 C   0  0  0  0  0  0  0  0  0  0  0  0
   -1.3857   -4.0000    0.0000 H   0  0  0  0  0  0  0  0  0  0  0  0
   -0.0001   -1.6000    0.0000 C   0  0  0  0  0  0  0  0  0  0  0  0
    1.3856   -2.4000    0.0000 H   0  0  0  0  0  0  0  0  0  0  0  0
  1  2  1  0  0  0  0
  1  3  1  0  0  0  0
  1  4  1  0  0  0  0
  1  5  1  0  0  0  0
  5  6  1  0  0  0  0
  5  7  1  0  0  0  0
  5  8  1  0  0  0  0
  8  9  1  0  0  0  0
  9 10  1  0  0  0  0
  9 11  2  0  0  0  0
 11 12  1  0  0  0  0
 12 13  1  0  0  0  0
 12 14  1  0  0  0  0
 12 15  1  0  0  0  0
 15 16  1  0  0  0  0
 15 17  1  0  0  0  0
 15 18  1  0  0  0  0
 11 19  1  0  0  0  0
 19 20  1  0  0  0  0
 19 21  2  0  0  0  0
 21 22  1  0  0  0  0
 21 23  1  0  0  0  0
 23  8  2  0  0  0  0
 23 24  1  0  0  0  0
M  END
> <ChemID>
101479

> <source_casrn>
141-93-5

> <CAS>
141-93-5

> <SMILES>
CCc1cc(CC)ccc1

> <NAME>
M-DIETHYLBENZENE

> <preferred_name>
1,3-Diethylbenzene

> <iupac>
1,3-diethylbenzene

> <MPID>
20541

> <dsstox_substance_id>
DTXSID1022003

> <Canonical_QSARr>
CCc1cc(CC)ccc1

> <InChI_Code_QSARr>
InChI=1S/C10H14/c1-3-9-6-5-7-10(4-2)8-9/h5-8H,3-4H2,1-2H3

> <InChI Key_QSARr>
AFZZYIJIWUTJFO-UHFFFAOYSA-N

> <Salt_Solvent>
?

> <BP>
181.1

$$$$
101483
  -INDIGO-08031720192D

 11 10  0  0  0  0  0  0  0  0999 V2000
    1.3856    2.4000    0.0000 Cl  0  0  0  0  0  0  0  0  0  0  0  0
    1.3856    0.8000    0.0000 C   0  0  0  0  0  0  0  0  0  0  0  0
    2.7713    1.6000    0.0000 H   0  0  0  0  0  0  0  0  0  0  0  0
    2.7713    0.0000    0.0000 H   0  0  0  0  0  0  0  0  0  0  0  0
    0.0000    0.0000    0.0000 C   0  0  0  0  0  0  0  0  0  0  0  0
    0.6123   -1.4782    0.0000 H   0  0  0  0  0  0  0  0  0  0  0  0
   -0.6123   -1.4782    0.0000 H   0  0  0  0  0  0  0  0  0  0  0  0
   -1.3856    0.8000    0.0000 C   0  0  0  0  0  0  0  0  0  0  0  0
   -2.7713    1.6000    0.0000 H   0  0  0  0  0  0  0  0  0  0  0  0
   -2.7713    0.0000    0.0000 H   0  0  0  0  0  0  0  0  0  0  0  0
   -1.3856    2.4000    0.0000 Cl  0  0  0  0  0  0  0  0  0  0  0  0
  1  2  1  0  0  0  0
  2  3  1  0  0  0  0
  2  4  1  0  0  0  0
  2  5  1  0  0  0  0
  5  6  1  0  0  0  0
  5  7  1  0  0  0  0
  5  8  1  0  0  0  0
  8  9  1  0  0  0  0
  8 10  1  0  0  0  0
  8 11  1  0  0  0  0
M  END
> <ChemID>
101483

> <source_casrn>
142-28-9

> <CAS>
142-28-9

> <SMILES>
ClCCCCl

> <NAME>
1,3-DICHLOROPROPANE

> <preferred_name>
1,3-Dichloropropane

> <iupac>
1,3-dichloropropane

> <MPID>
20545

> <dsstox_substance_id>
DTXSID6022004

> <Canonical_QSARr>
ClCCCCl

> <InChI_Code_QSARr>
InChI=1S/C3H6Cl2/c4-2-1-3-5/h1-3H2

> <InChI Key_QSARr>
YHRUOJUYPBUZOS-UHFFFAOYSA-N

> <Salt_Solvent>
?

> <BP>
120.9

$$$$
101487
  -INDIGO-08031720192D

 35 34  0  0  0  0  0  0  0  0999 V2000
   -5.5425    0.0000    0.0000 O   0  0  0  0  0  0  0  0  0  0  0  0
   -4.1569    0.8000    0.0000 C   0  0  0  0  0  0  0  0  0  0  0  0
   -4.7693    2.2782    0.0000 H   0  0  0  0  0  0  0  0  0  0  0  0
   -3.5447    2.2782    0.0000 H   0  0  0  0  0  0  0  0  0  0  0  0
   -2.7713    0.0000    0.0000 C   0  0  0  0  0  0  0  0  0  0  0  0
   -2.1589   -1.4782    0.0000 H   0  0  0  0  0  0  0  0  0  0  0  0
   -3.3837   -1.4782    0.0000 H   0  0  0  0  0  0  0  0  0  0  0  0
   -1.3857    0.8000    0.0000 C   0  0  0  0  0  0  0  0  0  0  0  0
   -1.9981    2.2782    0.0000 H   0  0  0  0  0  0  0  0  0  0  0  0
   -0.7733    2.2782    0.0000 H   0  0  0  0  0  0  0  0  0  0  0  0
   -0.0001    0.0000    0.0000 C   0  0  0  0  0  0  0  0  0  0  0  0
    0.6123   -1.4782    0.0000 H   0  0  0  0  0  0  0  0  0  0  0  0
   -0.6122   -1.4782    0.0000 H   0  0  0  0  0  0  0  0  0  0  0  0
    1.3855    0.8000    0.0000 C   0  0  0  0  0  0  0  0  0  0  0  0
    0.7734    2.2782    0.0000 H   0  0  0  0  0  0  0  0  0  0  0  0
    1.9979    2.2782    0.0000 H   0  0  0  0  0  0  0  0  0  0  0  0
    2.7714    0.0000    0.0000 C   0  0  0  0  0  0  0  0  0  0  0  0
    3.3835   -1.4782    0.0000 H   0  0  0  0  0  0  0  0  0  0  0  0
    2.1590   -1.4782    0.0000 H   0  0  0  0  0  0  0  0  0  0  0  0
    4.1570    0.8000    0.0000 C   0  0  0  0  0  0  0  0  0  0  0  0
    3.5446    2.2782    0.0000 H   0  0  0  0  0  0  0  0  0  0  0  0
    4.7691    2.2782    0.0000 H   0  0  0  0  0  0  0  0  0  0  0  0
    5.5426    0.0000    0.0000 C   0  0  0  0  0  0  0  0  0  0  0  0
    6.9282   -0.8000    0.0000 H   0  0  0  0  0  0  0  0  0  0  0  0
    6.9282    0.8000    0.0000 H   0  0  0  0  0  0  0  0  0  0  0  0
    5.5426   -1.6000    0.0000 H   0  0  0  0  0  0  0  0  0  0  0  0
   -6.9283    0.8000    0.0000 C   0  0  0  0  0  0  0  0  0  0  0  0
   -8.3139    0.0000    0.0000 C   0  0  0  0  0  0  0  0  0  0  0  0
   -7.7015   -1.4782    0.0000 H   0  0  0  0  0  0  0  0  0  0  0  0
   -8.9261   -1.4782    0.0000 H   0  0  0  0  0  0  0  0  0  0  0  0
   -9.6995    0.8000    0.0000 C   0  0  0  0  0  0  0  0  0  0  0  0
  -11.0851    1.6000    0.0000 H   0  0  0  0  0  0  0  0  0  0  0  0
  -11.0851    0.0000    0.0000 H   0  0  0  0  0  0  0  0  0  0  0  0
   -9.6995    2.4000    0.0000 H   0  0  0  0  0  0  0  0  0  0  0  0
   -6.9283    2.4000    0.0000 O   0  0  0  0  0  0  0  0  0  0  0  0
  1  2  1  0  0  0  0
  2  3  1  0  0  0  0
  2  4  1  0  0  0  0
  2  5  1  0  0  0  0
  5  6  1  0  0  0  0
  5  7  1  0  0  0  0
  5  8  1  0  0  0  0
  8  9  1  0  0  0  0
  8 10  1  0  0  0  0
  8 11  1  0  0  0  0
 11 12  1  0  0  0  0
 11 13  1  0  0  0  0
 11 14  1  0  0  0  0
 14 15  1  0  0  0  0
 14 16  1  0  0  0  0
 14 17  1  0  0  0  0
 17 18  1  0  0  0  0
 17 19  1  0  0  0  0
 17 20  1  0  0  0  0
 20 21  1  0  0  0  0
 20 22  1  0  0  0  0
 20 23  1  0  0  0  0
 23 24  1  0  0  0  0
 23 25  1  0  0  0  0
 23 26  1  0  0  0  0
  1 27  1  0  0  0  0
 27 28  1  0  0  0  0
 28 29  1  0  0  0  0
 28 30  1  0  0  0  0
 28 31  1  0  0  0  0
 31 32  1  0  0  0  0
 31 33  1  0  0  0  0
 31 34  1  0  0  0  0
 27 35  2  0  0  0  0
M  END
> <ChemID>
101487

> <source_casrn>
142-60-9

> <CAS>
142-60-9

> <SMILES>
CCCCCCCCOC(=O)CC

> <NAME>
Propanoic acid, octyl ester

> <preferred_name>
Propanoic acid, octyl ester

> <iupac>
Octyl propanoate

> <MPID>
20549

> <dsstox_substance_id>
DTXSID3059717

> <Canonical_QSARr>
CCCCCCCCOC(=O)CC

> <InChI_Code_QSARr>
InChI=1S/C11H22O2/c1-3-5-6-7-8-9-10-13-11(12)4-2/h3-10H2,1-2H3

> <InChI Key_QSARr>
CEQGYPPMTKWBIU-UHFFFAOYSA-N

> <Salt_Solvent>
?

> <BP>
228.0

$$$$
101491
  -INDIGO-08031720192D

 23 22  0  0  0  0  0  0  0  0999 V2000
    2.7712    0.0000    0.0000 C   0  0  0  0  0  0  0  0  0  0  0  0
    3.3836   -1.4782    0.0000 H   0  0  0  0  0  0  0  0  0  0  0  0
    2.1589   -1.4782    0.0000 H   0  0  0  0  0  0  0  0  0  0  0  0
    1.3856    0.8000    0.0000 C   0  0  0  0  0  0  0  0  0  0  0  0
    0.7734    2.2782    0.0000 H   0  0  0  0  0  0  0  0  0  0  0  0
    1.9979    2.2782    0.0000 H   0  0  0  0  0  0  0  0  0  0  0  0
    0.0001    0.0000    0.0000 C   0  0  0  0  0  0  0  0  0  0  0  0
    0.6122   -1.4782    0.0000 H   0  0  0  0  0  0  0  0  0  0  0  0
   -0.6122   -1.4782    0.0000 H   0  0  0  0  0  0  0  0  0  0  0  0
   -1.3856    0.8000    0.0000 C   0  0  0  0  0  0  0  0  0  0  0  0
   -1.9979    2.2782    0.0000 H   0  0  0  0  0  0  0  0  0  0  0  0
   -0.7734    2.2782    0.0000 H   0  0  0  0  0  0  0  0  0  0  0  0
   -2.7712    0.0000    0.0000 C   0  0  0  0  0  0  0  0  0  0  0  0
   -2.1589   -1.4782    0.0000 H   0  0  0  0  0  0  0  0  0  0  0  0
   -3.3836   -1.4782    0.0000 H   0  0  0  0  0  0  0  0  0  0  0  0
   -4.1569    0.8000    0.0000 C   0  0  0  0  0  0  0  0  0  0  0  0
   -5.5426    1.6000    0.0000 H   0  0  0  0  0  0  0  0  0  0  0  0
   -5.5426    0.0000    0.0000 H   0  0  0  0  0  0  0  0  0  0  0  0
   -4.1569    2.4000    0.0000 H   0  0  0  0  0  0  0  0  0  0  0  0
    4.1569    0.8000    0.0000 C   0  0  0  0  0  0  0  0  0  0  0  0
    5.5426    1.6000    0.0000 H   0  0  0  0  0  0  0  0  0  0  0  0
    5.5426    0.0000    0.0000 H   0  0  0  0  0  0  0  0  0  0  0  0
    4.1569    2.4000    0.0000 H   0  0  0  0  0  0  0  0  0  0  0  0
  1  2  1  0  0  0  0
  1  3  1  0  0  0  0
  1  4  1  0  0  0  0
  4  5  1  0  0  0  0
  4  6  1  0  0  0  0
  4  7  1  0  0  0  0
  7  8  1  0  0  0  0
  7  9  1  0  0  0  0
  7 10  1  0  0  0  0
 10 11  1  0  0  0  0
 10 12  1  0  0  0  0
 10 13  1  0  0  0  0
 13 14  1  0  0  0  0
 13 15  1  0  0  0  0
 13 16  1  0  0  0  0
 16 17  1  0  0  0  0
 16 18  1  0  0  0  0
 16 19  1  0  0  0  0
  1 20  1  0  0  0  0
 20 21  1  0  0  0  0
 20 22  1  0  0  0  0
 20 23  1  0  0  0  0
M  END
> <ChemID>
101491

> <source_casrn>
142-82-5

> <CAS>
142-82-5

> <SMILES>
CCCCCCC

> <NAME>
N-HEPTANE

> <preferred_name>
Heptane

> <iupac>
heptane

> <MPID>
20553

> <dsstox_substance_id>
DTXSID6024127

> <Canonical_QSARr>
CCCCCCC

> <InChI_Code_QSARr>
InChI=1S/C7H16/c1-3-5-7-6-4-2/h3-7H2,1-2H3

> <InChI Key_QSARr>
IMNFDUFMRHMDMM-UHFFFAOYSA-N

> <Salt_Solvent>
?

> <BP>
98.5

$$$$
101495
  -INDIGO-08031720192D

 27 26  0  0  0  0  0  0  0  0999 V2000
    2.7714   -0.0000    0.0000 C   0  0  0  0  0  0  0  0  0  0  0  0
    4.1569   -0.8000    0.0000 H   0  0  0  0  0  0  0  0  0  0  0  0
    4.1569    0.8000    0.0000 H   0  0  0  0  0  0  0  0  0  0  0  0
    2.7714   -1.6000    0.0000 H   0  0  0  0  0  0  0  0  0  0  0  0
    1.3856    0.8000    0.0000 C   0  0  0  0  0  0  0  0  0  0  0  0
    0.7733    2.2782    0.0000 H   0  0  0  0  0  0  0  0  0  0  0  0
    1.9980    2.2782    0.0000 H   0  0  0  0  0  0  0  0  0  0  0  0
    0.0001   -0.0000    0.0000 C   0  0  0  0  0  0  0  0  0  0  0  0
    0.6122   -1.4782    0.0000 H   0  0  0  0  0  0  0  0  0  0  0  0
   -0.6122   -1.4782    0.0000 H   0  0  0  0  0  0  0  0  0  0  0  0
   -1.3856    0.8000    0.0000 C   0  0  0  0  0  0  0  0  0  0  0  0
   -1.9980    2.2782    0.0000 H   0  0  0  0  0  0  0  0  0  0  0  0
   -0.7733    2.2782    0.0000 H   0  0  0  0  0  0  0  0  0  0  0  0
   -2.7712   -0.0000    0.0000 O   0  0  0  0  0  0  0  0  0  0  0  0
   -4.1569    0.8000    0.0000 C   0  0  0  0  0  0  0  0  0  0  0  0
   -4.7692    2.2782    0.0000 H   0  0  0  0  0  0  0  0  0  0  0  0
   -3.5446    2.2782    0.0000 H   0  0  0  0  0  0  0  0  0  0  0  0
   -5.5425   -0.0000    0.0000 C   0  0  0  0  0  0  0  0  0  0  0  0
   -4.9304   -1.4782    0.0000 H   0  0  0  0  0  0  0  0  0  0  0  0
   -6.1548   -1.4782    0.0000 H   0  0  0  0  0  0  0  0  0  0  0  0
   -6.9282    0.8000    0.0000 C   0  0  0  0  0  0  0  0  0  0  0  0
   -7.5405    2.2782    0.0000 H   0  0  0  0  0  0  0  0  0  0  0  0
   -6.3159    2.2782    0.0000 H   0  0  0  0  0  0  0  0  0  0  0  0
   -8.3137   -0.0000    0.0000 C   0  0  0  0  0  0  0  0  0  0  0  0
   -9.6995   -0.8000    0.0000 H   0  0  0  0  0  0  0  0  0  0  0  0
   -9.6995    0.8000    0.0000 H   0  0  0  0  0  0  0  0  0  0  0  0
   -8.3137   -1.6000    0.0000 H   0  0  0  0  0  0  0  0  0  0  0  0
  1  2  1  0  0  0  0
  1  3  1  0  0  0  0
  1  4  1  0  0  0  0
  1  5  1  0  0  0  0
  5  6  1  0  0  0  0
  5  7  1  0  0  0  0
  5  8  1  0  0  0  0
  8  9  1  0  0  0  0
  8 10  1  0  0  0  0
  8 11  1  0  0  0  0
 11 12  1  0  0  0  0
 11 13  1  0  0  0  0
 11 14  1  0  0  0  0
 14 15  1  0  0  0  0
 15 16  1  0  0  0  0
 15 17  1  0  0  0  0
 15 18  1  0  0  0  0
 18 19  1  0  0  0  0
 18 20  1  0  0  0  0
 18 21  1  0  0  0  0
 21 22  1  0  0  0  0
 21 23  1  0  0  0  0
 21 24  1  0  0  0  0
 24 25  1  0  0  0  0
 24 26  1  0  0  0  0
 24 27  1  0  0  0  0
M  END
> <ChemID>
101495

> <source_casrn>
142-96-1

> <CAS>
142-96-1

> <SMILES>
CCCCOCCCC

> <NAME>
DI-N-BUTYL ETHER

> <preferred_name>
Butyl ether

> <iupac>
1-butoxybutane

> <MPID>
20557

> <dsstox_substance_id>
DTXSID1022007

> <Canonical_QSARr>
CCCCOCCCC

> <InChI_Code_QSARr>
InChI=1S/C8H18O/c1-3-5-7-9-8-6-4-2/h3-8H2,1-2H3

> <InChI Key_QSARr>
DURPTKYDGMDSBL-UHFFFAOYSA-N

> <Salt_Solvent>
?

> <BP>
140.8

$$$$
101499
  -INDIGO-08031720192D

 35 34  0  0  0  0  0  0  0  0999 V2000
    8.3139    0.0000    0.0000 C   0  0  0  0  0  0  0  0  0  0  0  0
    8.3139   -1.6000    0.0000 O   0  0  0  0  0  0  0  0  0  0  0  0
    6.9283    0.8000    0.0000 O   0  0  0  0  0  0  0  0  0  0  0  0
    5.5425    0.0000    0.0000 C   0  0  0  0  0  0  0  0  0  0  0  0
    6.1549   -1.4782    0.0000 H   0  0  0  0  0  0  0  0  0  0  0  0
    4.9303   -1.4782    0.0000 H   0  0  0  0  0  0  0  0  0  0  0  0
    4.1569    0.8000    0.0000 C   0  0  0  0  0  0  0  0  0  0  0  0
    3.5447    2.2782    0.0000 H   0  0  0  0  0  0  0  0  0  0  0  0
    4.7693    2.2782    0.0000 H   0  0  0  0  0  0  0  0  0  0  0  0
    2.7713    0.0000    0.0000 C   0  0  0  0  0  0  0  0  0  0  0  0
    3.3837   -1.4782    0.0000 H   0  0  0  0  0  0  0  0  0  0  0  0
    2.1589   -1.4782    0.0000 H   0  0  0  0  0  0  0  0  0  0  0  0
    1.3857    0.8000    0.0000 C   0  0  0  0  0  0  0  0  0  0  0  0
    0.7733    2.2782    0.0000 H   0  0  0  0  0  0  0  0  0  0  0  0
    1.9981    2.2782    0.0000 H   0  0  0  0  0  0  0  0  0  0  0  0
    0.0001    0.0000    0.0000 C   0  0  0  0  0  0  0  0  0  0  0  0
    0.6122   -1.4782    0.0000 H   0  0  0  0  0  0  0  0  0  0  0  0
   -0.6123   -1.4782    0.0000 H   0  0  0  0  0  0  0  0  0  0  0  0
   -1.3855    0.8000    0.0000 C   0  0  0  0  0  0  0  0  0  0  0  0
   -1.9979    2.2782    0.0000 H   0  0  0  0  0  0  0  0  0  0  0  0
   -0.7734    2.2782    0.0000 H   0  0  0  0  0  0  0  0  0  0  0  0
   -2.7714    0.0000    0.0000 C   0  0  0  0  0  0  0  0  0  0  0  0
   -2.1590   -1.4782    0.0000 H   0  0  0  0  0  0  0  0  0  0  0  0
   -3.3835   -1.4782    0.0000 H   0  0  0  0  0  0  0  0  0  0  0  0
   -4.1570    0.8000    0.0000 C   0  0  0  0  0  0  0  0  0  0  0  0
   -4.7691    2.2782    0.0000 H   0  0  0  0  0  0  0  0  0  0  0  0
   -3.5446    2.2782    0.0000 H   0  0  0  0  0  0  0  0  0  0  0  0
   -5.5426    0.0000    0.0000 C   0  0  0  0  0  0  0  0  0  0  0  0
   -6.9282   -0.8000    0.0000 H   0  0  0  0  0  0  0  0  0  0  0  0
   -6.9282    0.8000    0.0000 H   0  0  0  0  0  0  0  0  0  0  0  0
   -5.5426   -1.6000    0.0000 H   0  0  0  0  0  0  0  0  0  0  0  0
    9.6995    0.8000    0.0000 C   0  0  0  0  0  0  0  0  0  0  0  0
   11.0851    1.6000    0.0000 H   0  0  0  0  0  0  0  0  0  0  0  0
   11.0851    0.0000    0.0000 H   0  0  0  0  0  0  0  0  0  0  0  0
    9.6995    2.4000    0.0000 H   0  0  0  0  0  0  0  0  0  0  0  0
  1  2  2  0  0  0  0
  1  3  1  0  0  0  0
  3  4  1  0  0  0  0
  4  5  1  0  0  0  0
  4  6  1  0  0  0  0
  4  7  1  0  0  0  0
  7  8  1  0  0  0  0
  7  9  1  0  0  0  0
  7 10  1  0  0  0  0
 10 11  1  0  0  0  0
 10 12  1  0  0  0  0
 10 13  1  0  0  0  0
 13 14  1  0  0  0  0
 13 15  1  0  0  0  0
 13 16  1  0  0  0  0
 16 17  1  0  0  0  0
 16 18  1  0  0  0  0
 16 19  1  0  0  0  0
 19 20  1  0  0  0  0
 19 21  1  0  0  0  0
 19 22  1  0  0  0  0
 22 23  1  0  0  0  0
 22 24  1  0  0  0  0
 22 25  1  0  0  0  0
 25 26  1  0  0  0  0
 25 27  1  0  0  0  0
 25 28  1  0  0  0  0
 28 29  1  0  0  0  0
 28 30  1  0  0  0  0
 28 31  1  0  0  0  0
  1 32  1  0  0  0  0
 32 33  1  0  0  0  0
 32 34  1  0  0  0  0
 32 35  1  0  0  0  0
M  END
> <ChemID>
101499

> <source_casrn>
143-13-5

> <CAS>
143-13-5

> <SMILES>
CCCCCCCCCOC(C)=O

> <NAME>
Acetic acid, nonyl ester

> <preferred_name>
Nonyl acetate

> <iupac>
nonyl acetate

> <MPID>
20561

> <dsstox_substance_id>
DTXSID4047123

> <Canonical_QSARr>
CCCCCCCCCOC(C)=O

> <InChI_Code_QSARr>
InChI=1S/C11H22O2/c1-3-4-5-6-7-8-9-10-13-11(2)12/h3-10H2,1-2H3

> <InChI Key_QSARr>
GJQIMXVRFNLMTB-UHFFFAOYSA-N

> <Salt_Solvent>
?

> <BP>
210.0

$$$$
101503
  -INDIGO-08031720192D

 37 36  0  0  0  0  0  0  0  0999 V2000
   -6.9282    0.8000    0.0000 O   0  0  0  0  0  0  0  0  0  0  0  0
   -5.5425   -0.0000    0.0000 C   0  0  0  0  0  0  0  0  0  0  0  0
   -6.1548   -1.4782    0.0000 H   0  0  0  0  0  0  0  0  0  0  0  0
   -4.9302   -1.4782    0.0000 H   0  0  0  0  0  0  0  0  0  0  0  0
   -4.1568    0.8000    0.0000 C   0  0  0  0  0  0  0  0  0  0  0  0
   -3.5445    2.2782    0.0000 H   0  0  0  0  0  0  0  0  0  0  0  0
   -4.7692    2.2782    0.0000 H   0  0  0  0  0  0  0  0  0  0  0  0
   -2.7712   -0.0000    0.0000 O   0  0  0  0  0  0  0  0  0  0  0  0
   -1.3855    0.8000    0.0000 C   0  0  0  0  0  0  0  0  0  0  0  0
   -0.7732    2.2782    0.0000 H   0  0  0  0  0  0  0  0  0  0  0  0
   -1.9978    2.2782    0.0000 H   0  0  0  0  0  0  0  0  0  0  0  0
    0.0001   -0.0000    0.0000 C   0  0  0  0  0  0  0  0  0  0  0  0
   -0.6122   -1.4782    0.0000 H   0  0  0  0  0  0  0  0  0  0  0  0
    0.6121   -1.4782    0.0000 H   0  0  0  0  0  0  0  0  0  0  0  0
    1.3858    0.8000    0.0000 O   0  0  0  0  0  0  0  0  0  0  0  0
    2.7711   -0.0000    0.0000 C   0  0  0  0  0  0  0  0  0  0  0  0
    2.1592   -1.4782    0.0000 H   0  0  0  0  0  0  0  0  0  0  0  0
    3.3834   -1.4782    0.0000 H   0  0  0  0  0  0  0  0  0  0  0  0
    4.1568    0.8000    0.0000 C   0  0  0  0  0  0  0  0  0  0  0  0
    4.7691    2.2782    0.0000 H   0  0  0  0  0  0  0  0  0  0  0  0
    3.5445    2.2782    0.0000 H   0  0  0  0  0  0  0  0  0  0  0  0
    5.5425   -0.0000    0.0000 O   0  0  0  0  0  0  0  0  0  0  0  0
    6.9281    0.8000    0.0000 C   0  0  0  0  0  0  0  0  0  0  0  0
    7.5404    2.2782    0.0000 H   0  0  0  0  0  0  0  0  0  0  0  0
    6.3158    2.2782    0.0000 H   0  0  0  0  0  0  0  0  0  0  0  0
    8.3138   -0.0000    0.0000 C   0  0  0  0  0  0  0  0  0  0  0  0
    7.7015   -1.4782    0.0000 H   0  0  0  0  0  0  0  0  0  0  0  0
    8.9261   -1.4782    0.0000 H   0  0  0  0  0  0  0  0  0  0  0  0
    9.6994    0.8000    0.0000 O   0  0  0  0  0  0  0  0  0  0  0  0
   11.0851   -0.0000    0.0000 C   0  0  0  0  0  0  0  0  0  0  0  0
   12.4708   -0.8000    0.0000 H   0  0  0  0  0  0  0  0  0  0  0  0
   12.4708    0.8000    0.0000 H   0  0  0  0  0  0  0  0  0  0  0  0
   11.0851   -1.6000    0.0000 H   0  0  0  0  0  0  0  0  0  0  0  0
   -8.3138   -0.0000    0.0000 C   0  0  0  0  0  0  0  0  0  0  0  0
   -9.6995   -0.8000    0.0000 H   0  0  0  0  0  0  0  0  0  0  0  0
   -9.6995    0.8000    0.0000 H   0  0  0  0  0  0  0  0  0  0  0  0
   -8.3138   -1.6000    0.0000 H   0  0  0  0  0  0  0  0  0  0  0  0
  1  2  1  0  0  0  0
  2  3  1  0  0  0  0
  2  4  1  0  0  0  0
  2  5  1  0  0  0  0
  5  6  1  0  0  0  0
  5  7  1  0  0  0  0
  5  8  1  0  0  0  0
  8  9  1  0  0  0  0
  9 10  1  0  0  0  0
  9 11  1  0  0  0  0
  9 12  1  0  0  0  0
 12 13  1  0  0  0  0
 12 14  1  0  0  0  0
 12 15  1  0  0  0  0
 15 16  1  0  0  0  0
 16 17  1  0  0  0  0
 16 18  1  0  0  0  0
 16 19  1  0  0  0  0
 19 20  1  0  0  0  0
 19 21  1  0  0  0  0
 19 22  1  0  0  0  0
 22 23  1  0  0  0  0
 23 24  1  0  0  0  0
 23 25  1  0  0  0  0
 23 26  1  0  0  0  0
 26 27  1  0  0  0  0
 26 28  1  0  0  0  0
 26 29  1  0  0  0  0
 29 30  1  0  0  0  0
 30 31  1  0  0  0  0
 30 32  1  0  0  0  0
 30 33  1  0  0  0  0
  1 34  1  0  0  0  0
 34 35  1  0  0  0  0
 34 36  1  0  0  0  0
 34 37  1  0  0  0  0
M  END
> <ChemID>
101503

> <source_casrn>
143-24-8

> <CAS>
143-24-8

> <SMILES>
COCCOCCOCCOCCOC

> <NAME>
2,5,8,11,14-Pentaoxapentadecane

> <preferred_name>
2,5,8,11,14-Pentaoxapentadecane

> <iupac>
2,5,8,11,14-pentaoxapentadecane

> <MPID>
20565

> <dsstox_substance_id>
DTXSID7044396

> <Canonical_QSARr>
COCCOCCOCCOCCOC

> <InChI_Code_QSARr>
InChI=1S/C10H22O5/c1-11-3-5-13-7-9-15-10-8-14-6-4-12-2/h3-10H2,1-2H3

> <InChI Key_QSARr>
ZUHZGEOKBKGPSW-UHFFFAOYSA-N

> <Salt_Solvent>
?

> <BP>
275.3

$$$$
101508
  -INDIGO-08031720192D

 28 29  0  0  0  0  0  0  0  0999 V2000
   -0.0001    0.0000    0.0000 Si  0  0  0  0  0  0  0  0  0  0  0  0
   -0.0001    1.6001    0.0000 C   0  0  0  0  0  0  0  0  0  0  0  0
   -0.0001    3.2000    0.0000 H   0  0  0  0  0  0  0  0  0  0  0  0
    1.3856    2.4000    0.0000 H   0  0  0  0  0  0  0  0  0  0  0  0
    1.3856    0.8000    0.0000 H   0  0  0  0  0  0  0  0  0  0  0  0
    1.5034   -0.5472    0.0000 C   0  0  0  0  0  0  0  0  0  0  0  0
    2.7292    0.4813    0.0000 C   0  0  0  0  0  0  0  0  0  0  0  0
    2.4513    2.0569    0.0000 H   0  0  0  0  0  0  0  0  0  0  0  0
    4.2327   -0.0660    0.0000 C   0  0  0  0  0  0  0  0  0  0  0  0
    5.4584    0.9624    0.0000 H   0  0  0  0  0  0  0  0  0  0  0  0
    4.5106   -1.6416    0.0000 C   0  0  0  0  0  0  0  0  0  0  0  0
    6.0140   -2.1889    0.0000 H   0  0  0  0  0  0  0  0  0  0  0  0
    3.2848   -2.6701    0.0000 C   0  0  0  0  0  0  0  0  0  0  0  0
    3.5627   -4.2459    0.0000 H   0  0  0  0  0  0  0  0  0  0  0  0
    1.7813   -2.1229    0.0000 C   0  0  0  0  0  0  0  0  0  0  0  0
    0.5557   -3.1514    0.0000 H   0  0  0  0  0  0  0  0  0  0  0  0
   -1.5999    0.0000    0.0000 C   0  0  0  0  0  0  0  0  0  0  0  0
   -2.4001    1.3857    0.0000 C   0  0  0  0  0  0  0  0  0  0  0  0
   -1.5999    2.7713    0.0000 H   0  0  0  0  0  0  0  0  0  0  0  0
   -4.0000    1.3857    0.0000 C   0  0  0  0  0  0  0  0  0  0  0  0
   -4.7999    2.7713    0.0000 H   0  0  0  0  0  0  0  0  0  0  0  0
   -4.7999    0.0000    0.0000 C   0  0  0  0  0  0  0  0  0  0  0  0
   -6.4000    0.0000    0.0000 H   0  0  0  0  0  0  0  0  0  0  0  0
   -4.0000   -1.3857    0.0000 C   0  0  0  0  0  0  0  0  0  0  0  0
   -4.7999   -2.7712    0.0000 H   0  0  0  0  0  0  0  0  0  0  0  0
   -2.4001   -1.3857    0.0000 C   0  0  0  0  0  0  0  0  0  0  0  0
   -1.5999   -2.7712    0.0000 H   0  0  0  0  0  0  0  0  0  0  0  0
   -0.0001   -1.6000    0.0000 Cl  0  0  0  0  0  0  0  0  0  0  0  0
  1  2  1  0  0  0  0
  2  3  1  0  0  0  0
  2  4  1  0  0  0  0
  2  5  1  0  0  0  0
  1  6  1  0  0  0  0
  6  7  1  0  0  0  0
  7  8  1  0  0  0  0
  7  9  2  0  0  0  0
  9 10  1  0  0  0  0
  9 11  1  0  0  0  0
 11 12  1  0  0  0  0
 11 13  2  0  0  0  0
 13 14  1  0  0  0  0
 13 15  1  0  0  0  0
 15  6  2  0  0  0  0
 15 16  1  0  0  0  0
  1 17  1  0  0  0  0
 17 18  1  0  0  0  0
 18 19  1  0  0  0  0
 18 20  2  0  0  0  0
 20 21  1  0  0  0  0
 20 22  1  0  0  0  0
 22 23  1  0  0  0  0
 22 24  2  0  0  0  0
 24 25  1  0  0  0  0
 24 26  1  0  0  0  0
 26 17  2  0  0  0  0
 26 27  1  0  0  0  0
  1 28  1  0  0  0  0
M  END
> <ChemID>
101508

> <source_casrn>
144-79-6

> <CAS>
144-79-6

> <SMILES>
C[Si](Cl)(c1ccccc1)c1ccccc1

> <NAME>
Silane, chloromethyldiphenyl-

> <preferred_name>
Chloro(methyl)diphenylsilane

> <iupac>
chloro(methyl)diphenylsilane

> <MPID>
20569

> <dsstox_substance_id>
DTXSID3027116

> <Canonical_QSARr>
C[Si](Cl)(c1ccccc1)c1ccccc1

> <InChI_Code_QSARr>
InChI=1S/C13H13ClSi/c1-15(14,12-8-4-2-5-9-12)13-10-6-3-7-11-13/h2-11H,1H3

> <InChI Key_QSARr>
OJZNZOXALZKPEA-UHFFFAOYSA-N

> <Salt_Solvent>
?

> <BP>
295.0

$$$$
101512
  -INDIGO-08031720192D

 19 19  0  0  0  0  0  0  0  0999 V2000
    2.4000   -1.3856    0.0000 C   0  0  0  0  0  0  0  0  0  0  0  0
    4.0000   -1.3856    0.0000 C   0  0  0  0  0  0  0  0  0  0  0  0
    4.8000   -2.7713    0.0000 H   0  0  0  0  0  0  0  0  0  0  0  0
    4.8000    0.0000    0.0000 O   0  0  0  0  0  0  0  0  0  0  0  0
    1.6000    0.0000    0.0000 C   0  0  0  0  0  0  0  0  0  0  0  0
    2.4000    1.3856    0.0000 O   0  0  0  0  0  0  0  0  0  0  0  0
    1.6000    2.7713    0.0000 H   0  0  0  0  0  0  0  0  0  0  0  0
    0.0000    0.0000    0.0000 C   0  0  0  0  0  0  0  0  0  0  0  0
   -0.8000    1.3856    0.0000 O   0  0  0  0  0  0  0  0  0  0  0  0
   -2.4001    1.3856    0.0000 C   0  0  0  0  0  0  0  0  0  0  0  0
   -3.2000    2.7713    0.0000 H   0  0  0  0  0  0  0  0  0  0  0  0
   -4.0000    1.3856    0.0000 H   0  0  0  0  0  0  0  0  0  0  0  0
   -1.6000    2.7713    0.0000 H   0  0  0  0  0  0  0  0  0  0  0  0
   -0.8000   -1.3856    0.0000 C   0  0  0  0  0  0  0  0  0  0  0  0
   -2.4001   -1.3856    0.0000 H   0  0  0  0  0  0  0  0  0  0  0  0
    0.0000   -2.7713    0.0000 C   0  0  0  0  0  0  0  0  0  0  0  0
   -0.8000   -4.1569    0.0000 H   0  0  0  0  0  0  0  0  0  0  0  0
    1.6000   -2.7713    0.0000 C   0  0  0  0  0  0  0  0  0  0  0  0
    2.4000   -4.1569    0.0000 H   0  0  0  0  0  0  0  0  0  0  0  0
  1  2  1  0  0  0  0
  2  3  1  0  0  0  0
  2  4  2  0  0  0  0
  1  5  1  0  0  0  0
  5  6  1  0  0  0  0
  6  7  1  0  0  0  0
  5  8  2  0  0  0  0
  8  9  1  0  0  0  0
  9 10  1  0  0  0  0
 10 11  1  0  0  0  0
 10 12  1  0  0  0  0
 10 13  1  0  0  0  0
  8 14  1  0  0  0  0
 14 15  1  0  0  0  0
 14 16  2  0  0  0  0
 16 17  1  0  0  0  0
 16 18  1  0  0  0  0
 18  1  2  0  0  0  0
 18 19  1  0  0  0  0
M  END
> <ChemID>
101512

> <source_casrn>
148-53-8

> <CAS>
148-53-8

> <SMILES>
COc1cccc(C=O)c1O

> <NAME>
O-VANILLIN

> <preferred_name>
2-Hydroxy-3-methoxybenzaldehyde

> <iupac>
2-hydroxy-3-methoxybenzaldehyde

> <MPID>
20573

> <dsstox_substance_id>
DTXSID5022011

> <Canonical_QSARr>
COc1cccc(C=O)c1O

> <InChI_Code_QSARr>
InChI=1S/C8H8O3/c1-11-7-4-2-3-6(5-9)8(7)10/h2-5,10H,1H3

> <InChI Key_QSARr>
JJVNINGBHGBWJH-UHFFFAOYSA-N

> <Salt_Solvent>
?

> <BP>
265.5

$$$$
101516
  -INDIGO-08031720192D

 18 18  0  0  0  0  0  0  0  0999 V2000
    0.0000   -0.0000    0.0000 Si  0  0  0  0  0  0  0  0  0  0  0  0
    0.8001   -1.3856    0.0000 C   0  0  0  0  0  0  0  0  0  0  0  0
    2.4000   -1.3856    0.0000 H   0  0  0  0  0  0  0  0  0  0  0  0
    1.6000   -2.7713    0.0000 H   0  0  0  0  0  0  0  0  0  0  0  0
    1.6000   -0.0000    0.0000 H   0  0  0  0  0  0  0  0  0  0  0  0
   -1.6000    0.0000    0.0000 C   0  0  0  0  0  0  0  0  0  0  0  0
   -2.4000    1.3856    0.0000 C   0  0  0  0  0  0  0  0  0  0  0  0
   -1.6000    2.7713    0.0000 H   0  0  0  0  0  0  0  0  0  0  0  0
   -4.0000    1.3856    0.0000 C   0  0  0  0  0  0  0  0  0  0  0  0
   -4.8001    2.7713    0.0000 H   0  0  0  0  0  0  0  0  0  0  0  0
   -4.8001    0.0000    0.0000 C   0  0  0  0  0  0  0  0  0  0  0  0
   -6.4000    0.0000    0.0000 H   0  0  0  0  0  0  0  0  0  0  0  0
   -4.0000   -1.3856    0.0000 C   0  0  0  0  0  0  0  0  0  0  0  0
   -4.8001   -2.7713    0.0000 H   0  0  0  0  0  0  0  0  0  0  0  0
   -2.4000   -1.3856    0.0000 C   0  0  0  0  0  0  0  0  0  0  0  0
   -1.6000   -2.7713    0.0000 H   0  0  0  0  0  0  0  0  0  0  0  0
    0.2088    1.5863    0.0000 Cl  0  0  0  0  0  0  0  0  0  0  0  0
    1.2694    0.9740    0.0000 Cl  0  0  0  0  0  0  0  0  0  0  0  0
  1  2  1  0  0  0  0
  2  3  1  0  0  0  0
  2  4  1  0  0  0  0
  2  5  1  0  0  0  0
  1  6  1  0  0  0  0
  6  7  1  0  0  0  0
  7  8  1  0  0  0  0
  7  9  2  0  0  0  0
  9 10  1  0  0  0  0
  9 11  1  0  0  0  0
 11 12  1  0  0  0  0
 11 13  2  0  0  0  0
 13 14  1  0  0  0  0
 13 15  1  0  0  0  0
 15  6  2  0  0  0  0
 15 16  1  0  0  0  0
  1 17  1  0  0  0  0
  1 18  1  0  0  0  0
M  END
> <ChemID>
101516

> <source_casrn>
149-74-6

> <CAS>
149-74-6

> <SMILES>
C[Si](Cl)(Cl)c1ccccc1

> <NAME>
DICHLOROMETHYLPHENYLSILANE

> <preferred_name>
Dichloromethylphenylsilane

> <iupac>
dichloro(methyl)phenylsilane

> <MPID>
20577

> <dsstox_substance_id>
DTXSID6029173

> <Canonical_QSARr>
C[Si](Cl)(Cl)c1ccccc1

> <InChI_Code_QSARr>
InChI=1S/C7H8Cl2Si/c1-10(8,9)7-5-3-2-4-6-7/h2-6H,1H3

> <InChI Key_QSARr>
GNEPOXWQWFSSOU-UHFFFAOYSA-N

> <Salt_Solvent>
?

> <BP>
206.5

$$$$
101520
  -INDIGO-08031720192D

 36 35  0  0  0  0  0  0  0  0999 V2000
   -0.0000   -0.0000    0.0000 N   0  0  0  0  0  0  0  0  0  0  0  0
    1.6000   -0.0000    0.0000 C   0  0  0  0  0  0  0  0  0  0  0  0
    2.8694   -0.9741    0.0000 H   0  0  0  0  0  0  0  0  0  0  0  0
    1.8088   -1.5863    0.0000 H   0  0  0  0  0  0  0  0  0  0  0  0
    2.3999    1.3856    0.0000 C   0  0  0  0  0  0  0  0  0  0  0  0
    1.1307    2.3596    0.0000 H   0  0  0  0  0  0  0  0  0  0  0  0
    2.1911    2.9720    0.0000 H   0  0  0  0  0  0  0  0  0  0  0  0
    4.0000    1.3856    0.0000 N   0  0  0  0  0  0  0  0  0  0  0  0
    4.8001    2.7712    0.0000 C   0  0  0  0  0  0  0  0  0  0  0  0
    3.5307    3.7453    0.0000 H   0  0  0  0  0  0  0  0  0  0  0  0
    4.5911    4.3576    0.0000 H   0  0  0  0  0  0  0  0  0  0  0  0
    6.4000    2.7712    0.0000 C   0  0  0  0  0  0  0  0  0  0  0  0
    7.2001    4.1569    0.0000 H   0  0  0  0  0  0  0  0  0  0  0  0
    8.0000    2.7712    0.0000 H   0  0  0  0  0  0  0  0  0  0  0  0
    5.6000    4.1569    0.0000 H   0  0  0  0  0  0  0  0  0  0  0  0
    4.8001   -0.0000    0.0000 C   0  0  0  0  0  0  0  0  0  0  0  0
    6.2783   -0.6124    0.0000 H   0  0  0  0  0  0  0  0  0  0  0  0
    6.2783    0.6123    0.0000 H   0  0  0  0  0  0  0  0  0  0  0  0
    4.0000   -1.3857    0.0000 C   0  0  0  0  0  0  0  0  0  0  0  0
    4.8001   -2.7713    0.0000 H   0  0  0  0  0  0  0  0  0  0  0  0
    3.2000   -2.7713    0.0000 H   0  0  0  0  0  0  0  0  0  0  0  0
    5.6000   -1.3857    0.0000 H   0  0  0  0  0  0  0  0  0  0  0  0
   -1.0284    1.2257    0.0000 C   0  0  0  0  0  0  0  0  0  0  0  0
   -1.0983    2.8241    0.0000 H   0  0  0  0  0  0  0  0  0  0  0  0
    0.0526    2.4054    0.0000 H   0  0  0  0  0  0  0  0  0  0  0  0
   -2.6284    1.2257    0.0000 C   0  0  0  0  0  0  0  0  0  0  0  0
   -4.2285    1.2257    0.0000 H   0  0  0  0  0  0  0  0  0  0  0  0
   -3.4285    2.6113    0.0000 H   0  0  0  0  0  0  0  0  0  0  0  0
   -3.4285   -0.1600    0.0000 H   0  0  0  0  0  0  0  0  0  0  0  0
   -0.8000   -1.3857    0.0000 C   0  0  0  0  0  0  0  0  0  0  0  0
   -2.2782   -1.9980    0.0000 H   0  0  0  0  0  0  0  0  0  0  0  0
   -2.2782   -0.7733    0.0000 H   0  0  0  0  0  0  0  0  0  0  0  0
   -0.0000   -2.7713    0.0000 C   0  0  0  0  0  0  0  0  0  0  0  0
    0.8001   -4.1569    0.0000 H   0  0  0  0  0  0  0  0  0  0  0  0
   -0.8000   -4.1569    0.0000 H   0  0  0  0  0  0  0  0  0  0  0  0
    1.6000   -2.7713    0.0000 H   0  0  0  0  0  0  0  0  0  0  0  0
  1  2  1  0  0  0  0
  2  3  1  0  0  0  0
  2  4  1  0  0  0  0
  2  5  1  0  0  0  0
  5  6  1  0  0  0  0
  5  7  1  0  0  0  0
  5  8  1  0  0  0  0
  8  9  1  0  0  0  0
  9 10  1  0  0  0  0
  9 11  1  0  0  0  0
  9 12  1  0  0  0  0
 12 13  1  0  0  0  0
 12 14  1  0  0  0  0
 12 15  1  0  0  0  0
  8 16  1  0  0  0  0
 16 17  1  0  0  0  0
 16 18  1  0  0  0  0
 16 19  1  0  0  0  0
 19 20  1  0  0  0  0
 19 21  1  0  0  0  0
 19 22  1  0  0  0  0
  1 23  1  0  0  0  0
 23 24  1  0  0  0  0
 23 25  1  0  0  0  0
 23 26  1  0  0  0  0
 26 27  1  0  0  0  0
 26 28  1  0  0  0  0
 26 29  1  0  0  0  0
  1 30  1  0  0  0  0
 30 31  1  0  0  0  0
 30 32  1  0  0  0  0
 30 33  1  0  0  0  0
 33 34  1  0  0  0  0
 33 35  1  0  0  0  0
 33 36  1  0  0  0  0
M  END
> <ChemID>
101520

> <source_casrn>
150-77-6

> <CAS>
150-77-6

> <SMILES>
CCN(CCN(CC)CC)CC

> <NAME>
1,2-Ethanediamine, N,N,N',N'-tetraethyl-

> <preferred_name>
1,2-Ethanediamine, N,N,N',N'-tetraethyl-

> <iupac>
N,N,N',N'-tetraethylethane-1,2-diamine

> <MPID>
20581

> <dsstox_substance_id>
DTXSID0059740

> <Canonical_QSARr>
CCN(CCN(CC)CC)CC

> <InChI_Code_QSARr>
InChI=1S/C10H24N2/c1-5-11(6-2)9-10-12(7-3)8-4/h5-10H2,1-4H3

> <InChI Key_QSARr>
DIHKMUNUGQVFES-UHFFFAOYSA-N

> <Salt_Solvent>
?

> <BP>
192.0

$$$$
101524
  -INDIGO-08031720192D

 33 32  0  0  0  0  0  0  0  0999 V2000
    2.7712   -0.0000    0.0000 C   0  0  0  0  0  0  0  0  0  0  0  0
    4.1569   -0.8000    0.0000 H   0  0  0  0  0  0  0  0  0  0  0  0
    4.1569    0.8000    0.0000 H   0  0  0  0  0  0  0  0  0  0  0  0
    2.7712   -1.6000    0.0000 H   0  0  0  0  0  0  0  0  0  0  0  0
    1.3857   -0.8000    0.0000 C   0  0  0  0  0  0  0  0  0  0  0  0
    0.7733   -2.2782    0.0000 H   0  0  0  0  0  0  0  0  0  0  0  0
    1.9980   -2.2782    0.0000 H   0  0  0  0  0  0  0  0  0  0  0  0
    0.0000   -0.0000    0.0000 C   0  0  0  0  0  0  0  0  0  0  0  0
   -1.3857    0.8000    0.0000 C   0  0  0  0  0  0  0  0  0  0  0  0
   -0.7734    2.2782    0.0000 H   0  0  0  0  0  0  0  0  0  0  0  0
   -1.9979    2.2782    0.0000 H   0  0  0  0  0  0  0  0  0  0  0  0
   -2.7712   -0.0000    0.0000 C   0  0  0  0  0  0  0  0  0  0  0  0
   -3.3836   -1.4782    0.0000 H   0  0  0  0  0  0  0  0  0  0  0  0
   -2.1589   -1.4782    0.0000 H   0  0  0  0  0  0  0  0  0  0  0  0
   -4.1569    0.8000    0.0000 C   0  0  0  0  0  0  0  0  0  0  0  0
   -3.1284    2.0256    0.0000 H   0  0  0  0  0  0  0  0  0  0  0  0
   -5.3825    1.8284    0.0000 C   0  0  0  0  0  0  0  0  0  0  0  0
   -4.5229    3.1779    0.0000 H   0  0  0  0  0  0  0  0  0  0  0  0
   -5.7289    3.3905    0.0000 H   0  0  0  0  0  0  0  0  0  0  0  0
   -6.8862    1.2812    0.0000 C   0  0  0  0  0  0  0  0  0  0  0  0
   -8.1118    2.3097    0.0000 H   0  0  0  0  0  0  0  0  0  0  0  0
   -8.3896    0.7340    0.0000 H   0  0  0  0  0  0  0  0  0  0  0  0
   -6.6082    2.8569    0.0000 H   0  0  0  0  0  0  0  0  0  0  0  0
   -5.1853   -0.4257    0.0000 C   0  0  0  0  0  0  0  0  0  0  0  0
   -6.2138   -1.6513    0.0000 H   0  0  0  0  0  0  0  0  0  0  0  0
   -4.6382   -1.9292    0.0000 H   0  0  0  0  0  0  0  0  0  0  0  0
   -6.7612   -0.1479    0.0000 H   0  0  0  0  0  0  0  0  0  0  0  0
   -0.8000   -1.3856    0.0000 O   0  0  0  0  0  0  0  0  0  0  0  0
   -0.2527   -2.8891    0.0000 H   0  0  0  0  0  0  0  0  0  0  0  0
    0.8001    1.3857    0.0000 C   0  0  0  0  0  0  0  0  0  0  0  0
    1.5999    2.7712    0.0000 H   0  0  0  0  0  0  0  0  0  0  0  0
    0.2527    2.8892    0.0000 H   0  0  0  0  0  0  0  0  0  0  0  0
    2.4000    1.3857    0.0000 H   0  0  0  0  0  0  0  0  0  0  0  0
  1  2  1  0  0  0  0
  1  3  1  0  0  0  0
  1  4  1  0  0  0  0
  1  5  1  0  0  0  0
  5  6  1  0  0  0  0
  5  7  1  0  0  0  0
  5  8  1  0  0  0  0
  8  9  1  0  0  0  0
  9 10  1  0  0  0  0
  9 11  1  0  0  0  0
  9 12  1  0  0  0  0
 12 13  1  0  0  0  0
 12 14  1  0  0  0  0
 12 15  1  0  0  0  0
 15 16  1  0  0  0  0
 15 17  1  0  0  0  0
 17 18  1  0  0  0  0
 17 19  1  0  0  0  0
 17 20  1  0  0  0  0
 20 21  1  0  0  0  0
 20 22  1  0  0  0  0
 20 23  1  0  0  0  0
 15 24  1  0  0  0  0
 24 25  1  0  0  0  0
 24 26  1  0  0  0  0
 24 27  1  0  0  0  0
  8 28  1  0  0  0  0
 28 29  1  0  0  0  0
  8 30  1  0  0  0  0
 30 31  1  0  0  0  0
 30 32  1  0  0  0  0
 30 33  1  0  0  0  0
M  END
> <ChemID>
101524

> <source_casrn>
151-19-9

> <CAS>
NOCAS_861834

> <SMILES>
CC(CCC(C)(O)CC)CC

> <NAME>
3-Octanol, 3,6-dimethyl-

> <preferred_name>


> <iupac>


> <MPID>
20585

> <dsstox_substance_id>
DTXSID40861834

> <Canonical_QSARr>
CC(CCC(C)(O)CC)CC

> <InChI_Code_QSARr>
InChI=1S/C10H22O/c1-5-9(3)7-8-10(4,11)6-2/h9,11H,5-8H2,1-4H3

> <InChI Key_QSARr>
NPHCXUPGMINOPP-UHFFFAOYSA-N

> <Salt_Solvent>
?

> <BP>
202.2

$$$$
101529
  -INDIGO-08031720192D

 21 21  0  0  0  0  0  0  0  0999 V2000
   -1.6001    0.0000    0.0000 O   0  0  0  0  0  0  0  0  0  0  0  0
    0.0001    0.0000    0.0000 C   0  0  0  0  0  0  0  0  0  0  0  0
    0.8001    1.3857    0.0000 C   0  0  0  0  0  0  0  0  0  0  0  0
    0.0001    2.7713    0.0000 H   0  0  0  0  0  0  0  0  0  0  0  0
    2.4000    1.3857    0.0000 C   0  0  0  0  0  0  0  0  0  0  0  0
    3.2000    2.7713    0.0000 H   0  0  0  0  0  0  0  0  0  0  0  0
    3.2000    0.0000    0.0000 C   0  0  0  0  0  0  0  0  0  0  0  0
    4.8000    0.0000    0.0000 N   0  0  0  0  0  0  0  0  0  0  0  0
    5.6000   -1.3857    0.0000 H   0  0  0  0  0  0  0  0  0  0  0  0
    5.6000    1.3857    0.0000 H   0  0  0  0  0  0  0  0  0  0  0  0
    2.4000   -1.3857    0.0000 C   0  0  0  0  0  0  0  0  0  0  0  0
    3.2000   -2.7713    0.0000 H   0  0  0  0  0  0  0  0  0  0  0  0
    0.8001   -1.3857    0.0000 C   0  0  0  0  0  0  0  0  0  0  0  0
    0.0001   -2.7713    0.0000 H   0  0  0  0  0  0  0  0  0  0  0  0
   -2.4000    1.3857    0.0000 C   0  0  0  0  0  0  0  0  0  0  0  0
   -1.1306    2.3596    0.0000 H   0  0  0  0  0  0  0  0  0  0  0  0
   -2.1912    2.9720    0.0000 H   0  0  0  0  0  0  0  0  0  0  0  0
   -4.0000    1.3857    0.0000 C   0  0  0  0  0  0  0  0  0  0  0  0
   -5.6000    1.3857    0.0000 H   0  0  0  0  0  0  0  0  0  0  0  0
   -4.8000    2.7713    0.0000 H   0  0  0  0  0  0  0  0  0  0  0  0
   -4.8000    0.0000    0.0000 H   0  0  0  0  0  0  0  0  0  0  0  0
  1  2  1  0  0  0  0
  2  3  1  0  0  0  0
  3  4  1  0  0  0  0
  3  5  2  0  0  0  0
  5  6  1  0  0  0  0
  5  7  1  0  0  0  0
  7  8  1  0  0  0  0
  8  9  1  0  0  0  0
  8 10  1  0  0  0  0
  7 11  2  0  0  0  0
 11 12  1  0  0  0  0
 11 13  1  0  0  0  0
 13  2  2  0  0  0  0
 13 14  1  0  0  0  0
  1 15  1  0  0  0  0
 15 16  1  0  0  0  0
 15 17  1  0  0  0  0
 15 18  1  0  0  0  0
 18 19  1  0  0  0  0
 18 20  1  0  0  0  0
 18 21  1  0  0  0  0
M  END
> <ChemID>
101529

> <source_casrn>
156-43-4

> <CAS>
156-43-4

> <SMILES>
CCOc1ccc(N)cc1

> <NAME>
P-ETHOXYANILINE

> <preferred_name>
4-Ethoxyaniline

> <iupac>
4-ethoxyaniline

> <MPID>
20590

> <dsstox_substance_id>
DTXSID0025864

> <Canonical_QSARr>
CCOc1ccc(N)cc1

> <InChI_Code_QSARr>
InChI=1S/C8H11NO/c1-2-10-8-5-3-7(9)4-6-8/h3-6H,2,9H2,1H3

> <InChI Key_QSARr>
IMPPGHMHELILKG-UHFFFAOYSA-N

> <Salt_Solvent>
?

> <BP>
254.0

$$$$
101534
  -INDIGO-08031720192D

 31 32  0  0  0  0  0  0  0  0999 V2000
    0.0001   -0.0000    0.0000 C   0  0  0  0  0  0  0  0  0  0  0  0
    0.8000   -1.3857    0.0000 C   0  0  0  0  0  0  0  0  0  0  0  0
    0.4257   -2.4141    0.0000 H   0  0  0  0  0  0  0  0  0  0  0  0
    1.0779   -2.9613    0.0000 H   0  0  0  0  0  0  0  0  0  0  0  0
    2.4000   -1.3857    0.0000 C   0  0  0  0  0  0  0  0  0  0  0  0
    2.1222   -2.9613    0.0000 H   0  0  0  0  0  0  0  0  0  0  0  0
    3.9035   -1.9329    0.0000 H   0  0  0  0  0  0  0  0  0  0  0  0
    3.2000   -0.0000    0.0000 C   0  0  0  0  0  0  0  0  0  0  0  0
    4.4257   -1.0285    0.0000 H   0  0  0  0  0  0  0  0  0  0  0  0
    4.4257    1.0285    0.0000 H   0  0  0  0  0  0  0  0  0  0  0  0
    2.4000    1.3857    0.0000 C   0  0  0  0  0  0  0  0  0  0  0  0
    3.9035    1.9329    0.0000 H   0  0  0  0  0  0  0  0  0  0  0  0
    2.1222    2.9613    0.0000 H   0  0  0  0  0  0  0  0  0  0  0  0
    0.8000    1.3857    0.0000 C   0  0  0  0  0  0  0  0  0  0  0  0
    1.0779    2.9613    0.0000 H   0  0  0  0  0  0  0  0  0  0  0  0
    0.4257    2.4141    0.0000 H   0  0  0  0  0  0  0  0  0  0  0  0
   -0.8000    1.3857    0.0000 C   0  0  0  0  0  0  0  0  0  0  0  0
   -0.4257    2.4141    0.0000 H   0  0  0  0  0  0  0  0  0  0  0  0
   -1.0779    2.9613    0.0000 H   0  0  0  0  0  0  0  0  0  0  0  0
   -2.4000    1.3857    0.0000 C   0  0  0  0  0  0  0  0  0  0  0  0
   -2.1222    2.9613    0.0000 H   0  0  0  0  0  0  0  0  0  0  0  0
   -3.9035    1.9329    0.0000 H   0  0  0  0  0  0  0  0  0  0  0  0
   -3.2000    0.0000    0.0000 C   0  0  0  0  0  0  0  0  0  0  0  0
   -4.4257    1.0285    0.0000 H   0  0  0  0  0  0  0  0  0  0  0  0
   -4.4257   -1.0285    0.0000 H   0  0  0  0  0  0  0  0  0  0  0  0
   -2.4000   -1.3857    0.0000 C   0  0  0  0  0  0  0  0  0  0  0  0
   -3.9035   -1.9329    0.0000 H   0  0  0  0  0  0  0  0  0  0  0  0
   -2.1222   -2.9613    0.0000 H   0  0  0  0  0  0  0  0  0  0  0  0
   -0.8000   -1.3857    0.0000 C   0  0  0  0  0  0  0  0  0  0  0  0
   -1.0779   -2.9613    0.0000 H   0  0  0  0  0  0  0  0  0  0  0  0
   -0.4257   -2.4141    0.0000 H   0  0  0  0  0  0  0  0  0  0  0  0
  1  2  1  0  0  0  0
  2  3  1  0  0  0  0
  2  4  1  0  0  0  0
  2  5  1  0  0  0  0
  5  6  1  0  0  0  0
  5  7  1  0  0  0  0
  5  8  1  0  0  0  0
  8  9  1  0  0  0  0
  8 10  1  0  0  0  0
  8 11  1  0  0  0  0
 11 12  1  0  0  0  0
 11 13  1  0  0  0  0
 11 14  1  0  0  0  0
 14  1  1  0  0  0  0
 14 15  1  0  0  0  0
 14 16  1  0  0  0  0
  1 17  1  0  0  0  0
 17 18  1  0  0  0  0
 17 19  1  0  0  0  0
 17 20  1  0  0  0  0
 20 21  1  0  0  0  0
 20 22  1  0  0  0  0
 20 23  1  0  0  0  0
 23 24  1  0  0  0  0
 23 25  1  0  0  0  0
 23 26  1  0  0  0  0
 26 27  1  0  0  0  0
 26 28  1  0  0  0  0
 26 29  1  0  0  0  0
 29  1  1  0  0  0  0
 29 30  1  0  0  0  0
 29 31  1  0  0  0  0
M  END
> <ChemID>
101534

> <source_casrn>
180-43-8

> <CAS>
180-43-8

> <SMILES>
C1CCCCC21CCCCC2

> <NAME>
SPIRO[5.5]UNDECANE

> <preferred_name>
Spiro(5.5)undecane

> <iupac>
Spiro[5.5]undecane

> <MPID>
20595

> <dsstox_substance_id>
DTXSID20170890

> <Canonical_QSARr>
C1CCCCC21CCCCC2

> <InChI_Code_QSARr>
InChI=1S/C11H20/c1-3-7-11(8-4-1)9-5-2-6-10-11/h1-10H2

> <InChI Key_QSARr>
NECLQTPQJZSWOE-UHFFFAOYSA-N

> <Salt_Solvent>
?

> <BP>
207.0

$$$$
101539
  -INDIGO-08031720192D

 25 28  0  0  0  0  0  0  0  0999 V2000
   -0.0001    0.0001    0.0000 C   0  0  0  0  0  0  0  0  0  0  0  0
   -0.8001    1.3857    0.0000 C   0  0  0  0  0  0  0  0  0  0  0  0
    0.7999    3.1745    0.0000 C   0  0  0  0  0  0  0  0  0  0  0  0
    1.9521    4.2847    0.0000 H   0  0  0  0  0  0  0  0  0  0  0  0
   -0.3521    4.2847    0.0000 H   0  0  0  0  0  0  0  0  0  0  0  0
    2.4001    1.3857    0.0000 C   0  0  0  0  0  0  0  0  0  0  0  0
    4.0000    1.3857    0.0000 C   0  0  0  0  0  0  0  0  0  0  0  0
    4.8000    2.7713    0.0000 H   0  0  0  0  0  0  0  0  0  0  0  0
    4.8000    0.0001    0.0000 C   0  0  0  0  0  0  0  0  0  0  0  0
    6.4000    0.0001    0.0000 H   0  0  0  0  0  0  0  0  0  0  0  0
    4.0000   -1.3857    0.0000 C   0  0  0  0  0  0  0  0  0  0  0  0
    4.8000   -2.7713    0.0000 H   0  0  0  0  0  0  0  0  0  0  0  0
    2.4001   -1.3857    0.0000 C   0  0  0  0  0  0  0  0  0  0  0  0
    1.6001   -2.7713    0.0000 C   0  0  0  0  0  0  0  0  0  0  0  0
    2.4001   -4.1569    0.0000 H   0  0  0  0  0  0  0  0  0  0  0  0
   -0.0001   -2.7713    0.0000 C   0  0  0  0  0  0  0  0  0  0  0  0
   -0.8001   -4.1569    0.0000 H   0  0  0  0  0  0  0  0  0  0  0  0
   -0.8001   -1.3857    0.0000 C   0  0  0  0  0  0  0  0  0  0  0  0
   -2.4000   -1.3857    0.0000 C   0  0  0  0  0  0  0  0  0  0  0  0
   -3.2000   -2.7713    0.0000 H   0  0  0  0  0  0  0  0  0  0  0  0
   -3.2000    0.0001    0.0000 C   0  0  0  0  0  0  0  0  0  0  0  0
   -4.8000    0.0001    0.0000 H   0  0  0  0  0  0  0  0  0  0  0  0
   -2.4000    1.3857    0.0000 C   0  0  0  0  0  0  0  0  0  0  0  0
   -3.2000    2.7713    0.0000 H   0  0  0  0  0  0  0  0  0  0  0  0
    1.6001    0.0001    0.0000 C   0  0  0  0  0  0  0  0  0  0  0  0
  1  2  1  0  0  0  0
  2  3  1  0  0  0  0
  3  4  1  0  0  0  0
  3  5  1  0  0  0  0
  3  6  1  0  0  0  0
  6  7  2  0  0  0  0
  7  8  1  0  0  0  0
  7  9  1  0  0  0  0
  9 10  1  0  0  0  0
  9 11  2  0  0  0  0
 11 12  1  0  0  0  0
 11 13  1  0  0  0  0
 13 14  2  0  0  0  0
 14 15  1  0  0  0  0
 14 16  1  0  0  0  0
 16 17  1  0  0  0  0
 16 18  2  0  0  0  0
 18  1  1  0  0  0  0
 18 19  1  0  0  0  0
 19 20  1  0  0  0  0
 19 21  2  0  0  0  0
 21 22  1  0  0  0  0
 21 23  1  0  0  0  0
 23  2  2  0  0  0  0
 23 24  1  0  0  0  0
 13 25  1  0  0  0  0
 25  1  2  0  0  0  0
 25  6  1  0  0  0  0
M  END
> <ChemID>
101539

> <source_casrn>
203-64-5

> <CAS>
203-64-5

> <SMILES>
C1c2cccc3ccc4cccc1c4c32

> <NAME>
4,5-METHYLENEPHENANTHRENE

> <preferred_name>
4-H-Cyclopenta(d,e,f)phenanthrene

> <iupac>
4H-cyclopenta[def]phenanthrene

> <MPID>
20599

> <dsstox_substance_id>
DTXSID1024887

> <Canonical_QSARr>
C1c2cccc3ccc4cccc1c4c32

> <InChI_Code_QSARr>
InChI=1S/C15H10/c1-3-10-7-8-11-4-2-6-13-9-12(5-1)14(10)15(11)13/h1-8H,9H2

> <InChI Key_QSARr>
RKZDZWJDQTZDLD-UHFFFAOYSA-N

> <Salt_Solvent>
?

> <BP>
353.0

$$$$
101543
  -INDIGO-08031720192D

 20 22  0  0  0  0  0  0  0  0999 V2000
    0.8000    2.2890    0.0000 C   0  0  0  0  0  0  0  0  0  0  0  0
    1.7008    3.6113    0.0000 H   0  0  0  0  0  0  0  0  0  0  0  0
   -0.8000    2.2890    0.0000 C   0  0  0  0  0  0  0  0  0  0  0  0
   -1.7009    3.6113    0.0000 H   0  0  0  0  0  0  0  0  0  0  0  0
   -1.3856    0.8000    0.0000 C   0  0  0  0  0  0  0  0  0  0  0  0
    0.0001    0.0000    0.0000 C   0  0  0  0  0  0  0  0  0  0  0  0
    0.0001   -1.6000    0.0000 C   0  0  0  0  0  0  0  0  0  0  0  0
   -1.3856   -2.4000    0.0000 C   0  0  0  0  0  0  0  0  0  0  0  0
   -1.3856   -4.0000    0.0000 H   0  0  0  0  0  0  0  0  0  0  0  0
   -2.7713   -1.6000    0.0000 C   0  0  0  0  0  0  0  0  0  0  0  0
   -4.1569   -2.4000    0.0000 H   0  0  0  0  0  0  0  0  0  0  0  0
   -2.7712    0.0000    0.0000 C   0  0  0  0  0  0  0  0  0  0  0  0
   -4.1569    0.8000    0.0000 H   0  0  0  0  0  0  0  0  0  0  0  0
    1.3856   -2.4000    0.0000 C   0  0  0  0  0  0  0  0  0  0  0  0
    1.3856   -4.0000    0.0000 H   0  0  0  0  0  0  0  0  0  0  0  0
    2.7713   -1.6000    0.0000 C   0  0  0  0  0  0  0  0  0  0  0  0
    4.1569   -2.4000    0.0000 H   0  0  0  0  0  0  0  0  0  0  0  0
    2.7713    0.0000    0.0000 C   0  0  0  0  0  0  0  0  0  0  0  0
    4.1569    0.8000    0.0000 H   0  0  0  0  0  0  0  0  0  0  0  0
    1.3856    0.8000    0.0000 C   0  0  0  0  0  0  0  0  0  0  0  0
  1  2  1  0  0  0  0
  1  3  2  0  0  0  0
  3  4  1  0  0  0  0
  3  5  1  0  0  0  0
  5  6  1  0  0  0  0
  6  7  1  0  0  0  0
  7  8  1  0  0  0  0
  8  9  1  0  0  0  0
  8 10  2  0  0  0  0
 10 11  1  0  0  0  0
 10 12  1  0  0  0  0
 12  5  2  0  0  0  0
 12 13  1  0  0  0  0
  7 14  2  0  0  0  0
 14 15  1  0  0  0  0
 14 16  1  0  0  0  0
 16 17  1  0  0  0  0
 16 18  2  0  0  0  0
 18 19  1  0  0  0  0
 18 20  1  0  0  0  0
 20  1  1  0  0  0  0
 20  6  2  0  0  0  0
M  END
> <ChemID>
101543

> <source_casrn>
208-96-8

> <CAS>
208-96-8

> <SMILES>
c1ccc2C=Cc3cccc1c32

> <NAME>
ACENAPHTHYLENE

> <preferred_name>
Acenaphthylene

> <iupac>
acenaphthylene

> <MPID>
20603

> <dsstox_substance_id>
DTXSID3023845

> <Canonical_QSARr>
c1ccc2C=Cc3cccc1c32

> <InChI_Code_QSARr>
InChI=1S/C12H8/c1-3-9-4-2-6-11-8-7-10(5-1)12(9)11/h1-8H

> <InChI Key_QSARr>
HXGDTGSAIMULJN-UHFFFAOYSA-N

> <Salt_Solvent>
?

> <BP>
280.0

$$$$
101547
  -INDIGO-08031720192D

 30 33  0  0  0  0  0  0  0  0999 V2000
    0.0000    0.0000    0.0000 C   0  0  0  0  0  0  0  0  0  0  0  0
   -0.8000    1.3856    0.0000 C   0  0  0  0  0  0  0  0  0  0  0  0
    0.0000    2.7713    0.0000 H   0  0  0  0  0  0  0  0  0  0  0  0
   -2.4000    1.3856    0.0000 C   0  0  0  0  0  0  0  0  0  0  0  0
   -3.2000    2.7713    0.0000 H   0  0  0  0  0  0  0  0  0  0  0  0
   -3.2000    0.0000    0.0000 C   0  0  0  0  0  0  0  0  0  0  0  0
   -4.8000    0.0000    0.0000 C   0  0  0  0  0  0  0  0  0  0  0  0
   -5.6000    1.3856    0.0000 H   0  0  0  0  0  0  0  0  0  0  0  0
   -5.6000   -1.3856    0.0000 C   0  0  0  0  0  0  0  0  0  0  0  0
   -7.2000   -1.3856    0.0000 H   0  0  0  0  0  0  0  0  0  0  0  0
   -4.8000   -2.7713    0.0000 C   0  0  0  0  0  0  0  0  0  0  0  0
   -5.6000   -4.1569    0.0000 H   0  0  0  0  0  0  0  0  0  0  0  0
   -3.2000   -2.7713    0.0000 C   0  0  0  0  0  0  0  0  0  0  0  0
   -2.4000   -4.1569    0.0000 H   0  0  0  0  0  0  0  0  0  0  0  0
   -2.4000   -1.3856    0.0000 C   0  0  0  0  0  0  0  0  0  0  0  0
   -0.8000   -1.3856    0.0000 C   0  0  0  0  0  0  0  0  0  0  0  0
    0.0000   -2.7713    0.0000 C   0  0  0  0  0  0  0  0  0  0  0  0
   -0.8000   -4.1569    0.0000 H   0  0  0  0  0  0  0  0  0  0  0  0
    1.6000   -2.7713    0.0000 C   0  0  0  0  0  0  0  0  0  0  0  0
    2.4000   -4.1569    0.0000 H   0  0  0  0  0  0  0  0  0  0  0  0
    2.4000   -1.3856    0.0000 C   0  0  0  0  0  0  0  0  0  0  0  0
    1.6000    0.0000    0.0000 C   0  0  0  0  0  0  0  0  0  0  0  0
    2.4000    1.3856    0.0000 C   0  0  0  0  0  0  0  0  0  0  0  0
    1.6000    2.7713    0.0000 H   0  0  0  0  0  0  0  0  0  0  0  0
    4.0000    1.3856    0.0000 C   0  0  0  0  0  0  0  0  0  0  0  0
    4.8000    2.7713    0.0000 H   0  0  0  0  0  0  0  0  0  0  0  0
    4.8000    0.0000    0.0000 C   0  0  0  0  0  0  0  0  0  0  0  0
    6.4000    0.0000    0.0000 H   0  0  0  0  0  0  0  0  0  0  0  0
    4.0000   -1.3856    0.0000 C   0  0  0  0  0  0  0  0  0  0  0  0
    4.8000   -2.7713    0.0000 H   0  0  0  0  0  0  0  0  0  0  0  0
  1  2  1  0  0  0  0
  2  3  1  0  0  0  0
  2  4  2  0  0  0  0
  4  5  1  0  0  0  0
  4  6  1  0  0  0  0
  6  7  1  0  0  0  0
  7  8  1  0  0  0  0
  7  9  2  0  0  0  0
  9 10  1  0  0  0  0
  9 11  1  0  0  0  0
 11 12  1  0  0  0  0
 11 13  2  0  0  0  0
 13 14  1  0  0  0  0
 13 15  1  0  0  0  0
 15  6  2  0  0  0  0
 15 16  1  0  0  0  0
 16  1  1  0  0  0  0
 16 17  2  0  0  0  0
 17 18  1  0  0  0  0
 17 19  1  0  0  0  0
 19 20  1  0  0  0  0
 19 21  2  0  0  0  0
 21 22  1  0  0  0  0
 22  1  2  0  0  0  0
 22 23  1  0  0  0  0
 23 24  1  0  0  0  0
 23 25  2  0  0  0  0
 25 26  1  0  0  0  0
 25 27  1  0  0  0  0
 27 28  1  0  0  0  0
 27 29  2  0  0  0  0
 29 21  1  0  0  0  0
 29 30  1  0  0  0  0
M  END
> <ChemID>
101547

> <source_casrn>
218-01-9

> <CAS>
218-01-9

> <SMILES>
c1cc2c3ccccc3ccc2c2ccccc21

> <NAME>
CHRYSENE

> <preferred_name>
Chrysene

> <iupac>
chrysene

> <MPID>
20607

> <dsstox_substance_id>
DTXSID0022432

> <Canonical_QSARr>
c1cc2c3ccccc3ccc2c2ccccc21

> <InChI_Code_QSARr>
InChI=1S/C18H12/c1-3-7-15-13(5-1)9-11-18-16-8-4-2-6-14(16)10-12-17(15)18/h1-12H

> <InChI Key_QSARr>
WDECIBYCCFPHNR-UHFFFAOYSA-N

> <Salt_Solvent>
?

> <BP>
448.0

$$$$
101552
  -INDIGO-08031720192D

 16 17  0  0  0  0  0  0  0  0999 V2000
    2.7713   -0.0000    0.0000 C   0  0  0  0  0  0  0  0  0  0  0  0
    4.1569    0.8000    0.0000 H   0  0  0  0  0  0  0  0  0  0  0  0
    2.7713   -1.6000    0.0000 C   0  0  0  0  0  0  0  0  0  0  0  0
    4.1569   -2.4000    0.0000 H   0  0  0  0  0  0  0  0  0  0  0  0
    1.3856   -2.4000    0.0000 C   0  0  0  0  0  0  0  0  0  0  0  0
    1.3856   -4.0000    0.0000 H   0  0  0  0  0  0  0  0  0  0  0  0
    0.0000   -1.6000    0.0000 C   0  0  0  0  0  0  0  0  0  0  0  0
   -1.3856   -2.4000    0.0000 C   0  0  0  0  0  0  0  0  0  0  0  0
   -1.3856   -4.0000    0.0000 H   0  0  0  0  0  0  0  0  0  0  0  0
   -2.7713   -1.6000    0.0000 N   0  0  0  0  0  0  0  0  0  0  0  0
   -2.7713   -0.0000    0.0000 N   0  0  0  0  0  0  0  0  0  0  0  0
   -1.3856    0.8000    0.0000 C   0  0  0  0  0  0  0  0  0  0  0  0
   -1.3856    2.4000    0.0000 H   0  0  0  0  0  0  0  0  0  0  0  0
    0.0000   -0.0000    0.0000 C   0  0  0  0  0  0  0  0  0  0  0  0
    1.3856    0.8000    0.0000 C   0  0  0  0  0  0  0  0  0  0  0  0
    1.3856    2.4000    0.0000 H   0  0  0  0  0  0  0  0  0  0  0  0
  1  2  1  0  0  0  0
  1  3  1  0  0  0  0
  3  4  1  0  0  0  0
  3  5  2  0  0  0  0
  5  6  1  0  0  0  0
  5  7  1  0  0  0  0
  7  8  1  0  0  0  0
  8  9  1  0  0  0  0
  8 10  2  0  0  0  0
 10 11  1  0  0  0  0
 11 12  2  0  0  0  0
 12 13  1  0  0  0  0
 12 14  1  0  0  0  0
 14  7  2  0  0  0  0
 14 15  1  0  0  0  0
 15  1  2  0  0  0  0
 15 16  1  0  0  0  0
M  END
> <ChemID>
101552

> <source_casrn>
253-52-1

> <CAS>
253-52-1

> <SMILES>
c1[n][n]cc2ccccc21

> <NAME>
PHTHALAZINE

> <preferred_name>
Phthalazine

> <iupac>
phthalazine

> <MPID>
20611

> <dsstox_substance_id>
DTXSID9049407

> <Canonical_QSARr>
c1[n][n]cc2ccccc21

> <InChI_Code_QSARr>
InChI=1S/C8H6N2/c1-2-4-8-6-10-9-5-7(8)3-1/h1-6H

> <InChI Key_QSARr>
LFSXCDWNBUNEEM-UHFFFAOYSA-N

> <Salt_Solvent>
?

> <BP>
316.0

$$$$
101556
  -INDIGO-08031720192D

 24 26  0  0  0  0  0  0  0  0999 V2000
    0.0001    3.2000    0.0000 S   0  0  0  0  0  0  0  0  0  0  0  0
   -1.3856    2.4000    0.0000 C   0  0  0  0  0  0  0  0  0  0  0  0
   -1.3856    0.8000    0.0000 C   0  0  0  0  0  0  0  0  0  0  0  0
   -2.7712    0.0000    0.0000 C   0  0  0  0  0  0  0  0  0  0  0  0
   -2.7712   -1.6000    0.0000 H   0  0  0  0  0  0  0  0  0  0  0  0
   -4.1569    0.8000    0.0000 C   0  0  0  0  0  0  0  0  0  0  0  0
   -5.5426    0.0000    0.0000 H   0  0  0  0  0  0  0  0  0  0  0  0
   -4.1569    2.4000    0.0000 C   0  0  0  0  0  0  0  0  0  0  0  0
   -5.5426    3.2000    0.0000 H   0  0  0  0  0  0  0  0  0  0  0  0
   -2.7712    3.2000    0.0000 C   0  0  0  0  0  0  0  0  0  0  0  0
   -2.7712    4.8000    0.0000 H   0  0  0  0  0  0  0  0  0  0  0  0
    0.0001    0.0000    0.0000 C   0  0  0  0  0  0  0  0  0  0  0  0
   -1.0285   -1.2257    0.0000 H   0  0  0  0  0  0  0  0  0  0  0  0
    1.0285   -1.2257    0.0000 H   0  0  0  0  0  0  0  0  0  0  0  0
    1.3856    0.8000    0.0000 C   0  0  0  0  0  0  0  0  0  0  0  0
    1.3856    2.4000    0.0000 C   0  0  0  0  0  0  0  0  0  0  0  0
    2.7712    3.2000    0.0000 C   0  0  0  0  0  0  0  0  0  0  0  0
    2.7712    4.8000    0.0000 H   0  0  0  0  0  0  0  0  0  0  0  0
    4.1569    2.4000    0.0000 C   0  0  0  0  0  0  0  0  0  0  0  0
    5.5426    3.2000    0.0000 H   0  0  0  0  0  0  0  0  0  0  0  0
    4.1569    0.8000    0.0000 C   0  0  0  0  0  0  0  0  0  0  0  0
    5.5426    0.0000    0.0000 H   0  0  0  0  0  0  0  0  0  0  0  0
    2.7712    0.0000    0.0000 C   0  0  0  0  0  0  0  0  0  0  0  0
    2.7712   -1.6000    0.0000 H   0  0  0  0  0  0  0  0  0  0  0  0
  1  2  1  0  0  0  0
  2  3  1  0  0  0  0
  3  4  2  0  0  0  0
  4  5  1  0  0  0  0
  4  6  1  0  0  0  0
  6  7  1  0  0  0  0
  6  8  2  0  0  0  0
  8  9  1  0  0  0  0
  8 10  1  0  0  0  0
 10  2  2  0  0  0  0
 10 11  1  0  0  0  0
  3 12  1  0  0  0  0
 12 13  1  0  0  0  0
 12 14  1  0  0  0  0
 12 15  1  0  0  0  0
 15 16  1  0  0  0  0
 16  1  1  0  0  0  0
 16 17  2  0  0  0  0
 17 18  1  0  0  0  0
 17 19  1  0  0  0  0
 19 20  1  0  0  0  0
 19 21  2  0  0  0  0
 21 22  1  0  0  0  0
 21 23  1  0  0  0  0
 23 15  2  0  0  0  0
 23 24  1  0  0  0  0
M  END
> <ChemID>
101556

> <source_casrn>
261-31-4

> <CAS>
261-31-4

> <SMILES>
C1c2ccccc2Sc2ccccc21

> <NAME>
Thioxanthene

> <preferred_name>
Thioxanthine

> <iupac>
9H-thioxanthene

> <MPID>
20615

> <dsstox_substance_id>
DTXSID20180732

> <Canonical_QSARr>
C1c2ccccc2Sc2ccccc21

> <InChI_Code_QSARr>
InChI=1S/C13H10S/c1-3-7-12-10(5-1)9-11-6-2-4-8-13(11)14-12/h1-8H,9H2

> <InChI Key_QSARr>
PQJUJGAVDBINPI-UHFFFAOYSA-N

> <Salt_Solvent>
?

> <BP>
341.0

$$$$
101560
  -INDIGO-08031720192D

 14 15  0  0  0  0  0  0  0  0999 V2000
   -0.0000   -0.0000    0.0000 C   0  0  0  0  0  0  0  0  0  0  0  0
    1.5651    0.3327    0.0000 C   0  0  0  0  0  0  0  0  0  0  0  0
    2.7541   -0.7380    0.0000 H   0  0  0  0  0  0  0  0  0  0  0  0
    1.7323    1.9239    0.0000 N   0  0  0  0  0  0  0  0  0  0  0  0
    0.2706    2.5746    0.0000 S   0  0  0  0  0  0  0  0  0  0  0  0
   -0.8000    1.3856    0.0000 C   0  0  0  0  0  0  0  0  0  0  0  0
   -2.4000    1.3856    0.0000 C   0  0  0  0  0  0  0  0  0  0  0  0
   -3.2000    2.7713    0.0000 H   0  0  0  0  0  0  0  0  0  0  0  0
   -3.2000   -0.0000    0.0000 C   0  0  0  0  0  0  0  0  0  0  0  0
   -4.8000   -0.0000    0.0000 H   0  0  0  0  0  0  0  0  0  0  0  0
   -2.4000   -1.3856    0.0000 C   0  0  0  0  0  0  0  0  0  0  0  0
   -3.2000   -2.7713    0.0000 H   0  0  0  0  0  0  0  0  0  0  0  0
   -0.8000   -1.3856    0.0000 C   0  0  0  0  0  0  0  0  0  0  0  0
   -0.0000   -2.7713    0.0000 H   0  0  0  0  0  0  0  0  0  0  0  0
  1  2  1  0  0  0  0
  2  3  1  0  0  0  0
  2  4  2  0  0  0  0
  4  5  1  0  0  0  0
  5  6  1  0  0  0  0
  6  1  1  0  0  0  0
  6  7  2  0  0  0  0
  7  8  1  0  0  0  0
  7  9  1  0  0  0  0
  9 10  1  0  0  0  0
  9 11  2  0  0  0  0
 11 12  1  0  0  0  0
 11 13  1  0  0  0  0
 13  1  2  0  0  0  0
 13 14  1  0  0  0  0
M  END
> <ChemID>
101560

> <source_casrn>
272-16-2

> <CAS>
272-16-2

> <SMILES>
c1[n][s]c2ccccc21

> <NAME>
1,2-BENZISOTHIAZOLE

> <preferred_name>
1,2-Benzisothiazole

> <iupac>
1,2-benzothiazole

> <MPID>
20619

> <dsstox_substance_id>
DTXSID7074290

> <Canonical_QSARr>
c1[n][s]c2ccccc21

> <InChI_Code_QSARr>
InChI=1S/C7H5NS/c1-2-4-7-6(3-1)5-8-9-7/h1-5H

> <InChI Key_QSARr>
CSNIZNHTOVFARY-UHFFFAOYSA-N

> <Salt_Solvent>
?

> <BP>
220.0

$$$$
101564
  -INDIGO-08031720192D

 16 17  0  0  0  0  0  0  0  0999 V2000
   -0.0000   -0.0000    0.0000 N   0  0  0  0  0  0  0  0  0  0  0  0
    1.5217    0.4944    0.0000 C   0  0  0  0  0  0  0  0  0  0  0  0
    2.0161    2.0161    0.0000 H   0  0  0  0  0  0  0  0  0  0  0  0
    2.4621   -0.8000    0.0000 C   0  0  0  0  0  0  0  0  0  0  0  0
    4.0621   -0.8000    0.0000 H   0  0  0  0  0  0  0  0  0  0  0  0
    1.5217   -2.0944    0.0000 C   0  0  0  0  0  0  0  0  0  0  0  0
    2.0161   -3.6161    0.0000 H   0  0  0  0  0  0  0  0  0  0  0  0
   -0.0000   -1.6000    0.0000 C   0  0  0  0  0  0  0  0  0  0  0  0
   -1.3856   -2.4000    0.0000 C   0  0  0  0  0  0  0  0  0  0  0  0
   -1.3856   -4.0000    0.0000 H   0  0  0  0  0  0  0  0  0  0  0  0
   -2.7713   -1.6000    0.0000 C   0  0  0  0  0  0  0  0  0  0  0  0
   -4.1569   -2.4000    0.0000 H   0  0  0  0  0  0  0  0  0  0  0  0
   -2.7713   -0.0000    0.0000 C   0  0  0  0  0  0  0  0  0  0  0  0
   -4.1569    0.8000    0.0000 H   0  0  0  0  0  0  0  0  0  0  0  0
   -1.3856    0.8000    0.0000 C   0  0  0  0  0  0  0  0  0  0  0  0
   -1.3856    2.4000    0.0000 H   0  0  0  0  0  0  0  0  0  0  0  0
  1  2  1  0  0  0  0
  2  3  1  0  0  0  0
  2  4  2  0  0  0  0
  4  5  1  0  0  0  0
  4  6  1  0  0  0  0
  6  7  1  0  0  0  0
  6  8  2  0  0  0  0
  8  1  1  0  0  0  0
  8  9  1  0  0  0  0
  9 10  1  0  0  0  0
  9 11  2  0  0  0  0
 11 12  1  0  0  0  0
 11 13  1  0  0  0  0
 13 14  1  0  0  0  0
 13 15  2  0  0  0  0
 15  1  1  0  0  0  0
 15 16  1  0  0  0  0
M  END
> <ChemID>
101564

> <source_casrn>
274-40-8

> <CAS>
274-40-8

> <SMILES>
c1cc[n]2ccccc21

> <NAME>
INDOLIZINE

> <preferred_name>
Indolizine

> <iupac>
INDOLIZINE

> <MPID>
20623

> <dsstox_substance_id>
DTXSID50181818

> <Canonical_QSARr>
c1cc[n]2ccccc21

> <InChI_Code_QSARr>
InChI=1S/C8H7N/c1-2-6-9-7-3-5-8(9)4-1/h1-7H

> <InChI Key_QSARr>
HOBCFUWDNJPFHB-UHFFFAOYSA-N

> <Salt_Solvent>
?

> <BP>
205.0

$$$$
101568
  -INDIGO-08031720192D

 25 26  0  0  0  0  0  0  0  0999 V2000
   -0.0000    0.0000    0.0000 C   0  0  0  0  0  0  0  0  0  0  0  0
    0.0914   -1.5974    0.0000 H   0  0  0  0  0  0  0  0  0  0  0  0
   -1.5791   -0.2578    0.0000 C   0  0  0  0  0  0  0  0  0  0  0  0
   -1.7636   -1.8471    0.0000 H   0  0  0  0  0  0  0  0  0  0  0  0
   -3.0571    0.3550    0.0000 H   0  0  0  0  0  0  0  0  0  0  0  0
   -0.7223    0.8226    0.0000 C   0  0  0  0  0  0  0  0  0  0  0  0
   -2.2330    1.3495    0.0000 H   0  0  0  0  0  0  0  0  0  0  0  0
   -0.7210    2.6284    0.0000 C   0  0  0  0  0  0  0  0  0  0  0  0
   -2.3189    2.5456    0.0000 H   0  0  0  0  0  0  0  0  0  0  0  0
   -0.8877    4.2197    0.0000 H   0  0  0  0  0  0  0  0  0  0  0  0
    0.8548    2.8778    0.0000 C   0  0  0  0  0  0  0  0  0  0  0  0
    1.0598    4.4646    0.0000 H   0  0  0  0  0  0  0  0  0  0  0  0
    1.5692    2.9905    0.0000 H   0  0  0  0  0  0  0  0  0  0  0  0
    0.0210    1.8865    0.0000 C   0  0  0  0  0  0  0  0  0  0  0  0
    1.6187    1.9724    0.0000 H   0  0  0  0  0  0  0  0  0  0  0  0
    0.3668    2.0969    0.0000 H   0  0  0  0  0  0  0  0  0  0  0  0
    1.1505    0.7019    0.0000 C   0  0  0  0  0  0  0  0  0  0  0  0
    1.0062    1.0801    0.0000 H   0  0  0  0  0  0  0  0  0  0  0  0
    1.4852    1.2413    0.0000 H   0  0  0  0  0  0  0  0  0  0  0  0
    2.2920    1.5117    0.0000 C   0  0  0  0  0  0  0  0  0  0  0  0
    2.3197    2.2343    0.0000 H   0  0  0  0  0  0  0  0  0  0  0  0
    3.8890    1.6098    0.0000 H   0  0  0  0  0  0  0  0  0  0  0  0
    1.9393   -0.0924    0.0000 C   0  0  0  0  0  0  0  0  0  0  0  0
    3.5188   -0.3475    0.0000 H   0  0  0  0  0  0  0  0  0  0  0  0
    1.7734   -1.6837    0.0000 H   0  0  0  0  0  0  0  0  0  0  0  0
  1  2  1  0  0  0  0
  1  3  1  0  0  0  0
  3  4  1  0  0  0  0
  3  5  1  0  0  0  0
  3  6  1  0  0  0  0
  6  7  1  0  0  0  0
  6  8  1  0  0  0  0
  8  9  1  0  0  0  0
  8 10  1  0  0  0  0
  8 11  1  0  0  0  0
 11 12  1  0  0  0  0
 11 13  1  0  0  0  0
 11 14  1  0  0  0  0
 14  1  1  0  0  0  0
 14 15  1  0  0  0  0
 14 16  1  0  0  0  0
  6 17  1  0  0  0  0
 17 18  1  0  0  0  0
 17 19  1  0  0  0  0
 17 20  1  0  0  0  0
 20 21  1  0  0  0  0
 20 22  1  0  0  0  0
 20 23  1  0  0  0  0
 23  1  1  0  0  0  0
 23 24  1  0  0  0  0
 23 25  1  0  0  0  0
M  END
> <ChemID>
101568

> <source_casrn>
280-65-9

> <CAS>
280-65-9

> <SMILES>
C1C2CCCC1CCC2

> <NAME>
BICYCLO[3.3.1]NONANE

> <preferred_name>
Bicyclo(3.3.1)nonane

> <iupac>
bicyclo[3.3.1]nonane

> <MPID>
20627

> <dsstox_substance_id>
DTXSID30182282

> <Canonical_QSARr>
C1C2CCCC1CCC2

> <InChI_Code_QSARr>
InChI=1S/C9H16/c1-3-8-5-2-6-9(4-1)7-8/h8-9H,1-7H2

> <InChI Key_QSARr>
WNTGVOIBBXFMLR-UHFFFAOYSA-N

> <Salt_Solvent>
?

> <BP>
169.5

$$$$
101573
  -INDIGO-08031720192D

 12 12  0  0  0  0  0  0  0  0999 V2000
    0.0000    0.0000    0.0000 C   0  0  0  0  0  0  0  0  0  0  0  0
    1.6000    0.0000    0.0000 H   0  0  0  0  0  0  0  0  0  0  0  0
    0.0000    1.6000    0.0000 H   0  0  0  0  0  0  0  0  0  0  0  0
    0.0000   -1.6000    0.0000 C   0  0  0  0  0  0  0  0  0  0  0  0
    1.6000   -1.6000    0.0000 H   0  0  0  0  0  0  0  0  0  0  0  0
    0.0000   -3.2000    0.0000 H   0  0  0  0  0  0  0  0  0  0  0  0
   -1.6000   -1.6000    0.0000 C   0  0  0  0  0  0  0  0  0  0  0  0
   -1.6000   -3.2000    0.0000 H   0  0  0  0  0  0  0  0  0  0  0  0
   -3.2000   -1.6000    0.0000 H   0  0  0  0  0  0  0  0  0  0  0  0
   -1.6000    0.0000    0.0000 C   0  0  0  0  0  0  0  0  0  0  0  0
   -3.2000    0.0000    0.0000 H   0  0  0  0  0  0  0  0  0  0  0  0
   -1.6000    1.6000    0.0000 H   0  0  0  0  0  0  0  0  0  0  0  0
  1  2  1  0  0  0  0
  1  3  1  0  0  0  0
  1  4  1  0  0  0  0
  4  5  1  0  0  0  0
  4  6  1  0  0  0  0
  4  7  1  0  0  0  0
  7  8  1  0  0  0  0
  7  9  1  0  0  0  0
  7 10  1  0  0  0  0
 10  1  1  0  0  0  0
 10 11  1  0  0  0  0
 10 12  1  0  0  0  0
M  END
> <ChemID>
101573

> <source_casrn>
287-23-0

> <CAS>
287-23-0

> <SMILES>
C1CCC1

> <NAME>
CYCLOBUTANE

> <preferred_name>
Cyclobutane

> <iupac>
cyclobutatetraene

> <MPID>
20631

> <dsstox_substance_id>
DTXSID2059772

> <Canonical_QSARr>
C1CCC1

> <InChI_Code_QSARr>
InChI=1S/C4H8/c1-2-4-3-1/h1-4H2

> <InChI Key_QSARr>
PMPVIKIVABFJJI-UHFFFAOYSA-N

> <Salt_Solvent>
?

> <BP>
12.6

$$$$
101577
  -INDIGO-08031720192D

  8  8  0  0  0  0  0  0  0  0999 V2000
   -0.0000   -0.0000    0.0000 C   0  0  0  0  0  0  0  0  0  0  0  0
    0.9404    1.2944    0.0000 H   0  0  0  0  0  0  0  0  0  0  0  0
    0.4944   -1.5217    0.0000 C   0  0  0  0  0  0  0  0  0  0  0  0
    2.0161   -2.0161    0.0000 H   0  0  0  0  0  0  0  0  0  0  0  0
   -0.8000   -2.4621    0.0000 N   0  0  0  0  0  0  0  0  0  0  0  0
   -2.0944   -1.5217    0.0000 O   0  0  0  0  0  0  0  0  0  0  0  0
   -1.6000   -0.0000    0.0000 C   0  0  0  0  0  0  0  0  0  0  0  0
   -2.5405    1.2944    0.0000 H   0  0  0  0  0  0  0  0  0  0  0  0
  1  2  1  0  0  0  0
  1  3  1  0  0  0  0
  3  4  1  0  0  0  0
  3  5  2  0  0  0  0
  5  6  1  0  0  0  0
  6  7  1  0  0  0  0
  7  1  2  0  0  0  0
  7  8  1  0  0  0  0
M  END
> <ChemID>
101577

> <source_casrn>
288-14-2

> <CAS>
288-14-2

> <SMILES>
c1cco[n]1

> <NAME>
ISO-OXAZOLE

> <preferred_name>
Isoxazole

> <iupac>
1,2-oxazole

> <MPID>
20635

> <dsstox_substance_id>
DTXSID7059775

> <Canonical_QSARr>
c1cco[n]1

> <InChI_Code_QSARr>
InChI=1S/C3H3NO/c1-2-4-5-3-1/h1-3H

> <InChI Key_QSARr>
CTAPFRYPJLPFDF-UHFFFAOYSA-N

> <Salt_Solvent>
?

> <BP>
95.0

$$$$
101581
  -INDIGO-08031720192D

  8  8  0  0  0  0  0  0  0  0999 V2000
    0.0000   -0.0000    0.0000 C   0  0  0  0  0  0  0  0  0  0  0  0
    1.4617    0.6508    0.0000 H   0  0  0  0  0  0  0  0  0  0  0  0
   -0.3326   -1.5650    0.0000 C   0  0  0  0  0  0  0  0  0  0  0  0
    0.7380   -2.7541    0.0000 H   0  0  0  0  0  0  0  0  0  0  0  0
   -1.9239   -1.7323    0.0000 S   0  0  0  0  0  0  0  0  0  0  0  0
   -2.5746   -0.2706    0.0000 C   0  0  0  0  0  0  0  0  0  0  0  0
   -4.1397    0.0621    0.0000 H   0  0  0  0  0  0  0  0  0  0  0  0
   -1.3856    0.8000    0.0000 N   0  0  0  0  0  0  0  0  0  0  0  0
  1  2  1  0  0  0  0
  1  3  2  0  0  0  0
  3  4  1  0  0  0  0
  3  5  1  0  0  0  0
  5  6  1  0  0  0  0
  6  7  1  0  0  0  0
  6  8  2  0  0  0  0
  8  1  1  0  0  0  0
M  END
> <ChemID>
101581

> <source_casrn>
288-47-1

> <CAS>
288-47-1

> <SMILES>
c1[n]cc[s]1

> <NAME>
THIAZOLE

> <preferred_name>
Thiazole

> <iupac>
1,3-thiazole

> <MPID>
20639

> <dsstox_substance_id>
DTXSID2059776

> <Canonical_QSARr>
c1[n]cc[s]1

> <InChI_Code_QSARr>
InChI=1S/C3H3NS/c1-2-5-3-4-1/h1-3H

> <InChI Key_QSARr>
FZWLAAWBMGSTSO-UHFFFAOYSA-N

> <Salt_Solvent>
?

> <BP>
118.0

$$$$
101585
  -INDIGO-08031720192D

  9  9  0  0  0  0  0  0  0  0999 V2000
   -0.0000   -0.0000    0.0000 C   0  0  0  0  0  0  0  0  0  0  0  0
    1.3856    0.8000    0.0000 H   0  0  0  0  0  0  0  0  0  0  0  0
   -1.3857    0.8000    0.0000 N   0  0  0  0  0  0  0  0  0  0  0  0
   -2.7713    0.0000    0.0000 C   0  0  0  0  0  0  0  0  0  0  0  0
   -4.1569    0.8000    0.0000 H   0  0  0  0  0  0  0  0  0  0  0  0
   -2.7713   -1.6000    0.0000 N   0  0  0  0  0  0  0  0  0  0  0  0
   -1.3856   -2.4000    0.0000 C   0  0  0  0  0  0  0  0  0  0  0  0
   -1.3856   -4.0000    0.0000 H   0  0  0  0  0  0  0  0  0  0  0  0
   -0.0000   -1.6000    0.0000 N   0  0  0  0  0  0  0  0  0  0  0  0
  1  2  1  0  0  0  0
  1  3  1  0  0  0  0
  3  4  2  0  0  0  0
  4  5  1  0  0  0  0
  4  6  1  0  0  0  0
  6  7  2  0  0  0  0
  7  8  1  0  0  0  0
  7  9  1  0  0  0  0
  9  1  2  0  0  0  0
M  END
> <ChemID>
101585

> <source_casrn>
290-87-9

> <CAS>
290-87-9

> <SMILES>
c1[n]c[n]c[n]1

> <NAME>
SYM-TRIAZINE

> <preferred_name>
1,3,5-Triazine

> <iupac>
1,3,5-triazine

> <MPID>
20643

> <dsstox_substance_id>
DTXSID7052785

> <Canonical_QSARr>
c1[n]c[n]c[n]1

> <InChI_Code_QSARr>
InChI=1S/C3H3N3/c1-4-2-6-3-5-1/h1-3H

> <InChI Key_QSARr>
JIHQDMXYYFUGFV-UHFFFAOYSA-N

> <Salt_Solvent>
?

> <BP>
114.0

$$$$
101589
  -INDIGO-08031720192D

 36 36  0  0  0  0  0  0  0  0999 V2000
    0.0001    0.0001    0.0000 C   0  0  0  0  0  0  0  0  0  0  0  0
    1.0285    1.2257    0.0000 H   0  0  0  0  0  0  0  0  0  0  0  0
   -0.2778    1.5757    0.0000 H   0  0  0  0  0  0  0  0  0  0  0  0
    1.3857   -0.7999    0.0000 C   0  0  0  0  0  0  0  0  0  0  0  0
    1.9329    0.7034    0.0000 H   0  0  0  0  0  0  0  0  0  0  0  0
    2.8891   -0.2527    0.0000 H   0  0  0  0  0  0  0  0  0  0  0  0
    2.1857   -2.1857    0.0000 C   0  0  0  0  0  0  0  0  0  0  0  0
    3.4114   -1.1571    0.0000 H   0  0  0  0  0  0  0  0  0  0  0  0
    3.7613   -2.4634    0.0000 H   0  0  0  0  0  0  0  0  0  0  0  0
    2.1857   -3.7857    0.0000 C   0  0  0  0  0  0  0  0  0  0  0  0
    3.7613   -3.5079    0.0000 H   0  0  0  0  0  0  0  0  0  0  0  0
    3.4114   -4.8141    0.0000 H   0  0  0  0  0  0  0  0  0  0  0  0
    1.3857   -5.1713    0.0000 C   0  0  0  0  0  0  0  0  0  0  0  0
    2.8891   -5.7185    0.0000 H   0  0  0  0  0  0  0  0  0  0  0  0
    1.9329   -6.6747    0.0000 H   0  0  0  0  0  0  0  0  0  0  0  0
   -0.0001   -5.9713    0.0000 C   0  0  0  0  0  0  0  0  0  0  0  0
    1.0285   -7.1970    0.0000 H   0  0  0  0  0  0  0  0  0  0  0  0
   -0.2778   -7.5470    0.0000 H   0  0  0  0  0  0  0  0  0  0  0  0
   -1.6001   -5.9713    0.0000 C   0  0  0  0  0  0  0  0  0  0  0  0
   -1.3222   -7.5470    0.0000 H   0  0  0  0  0  0  0  0  0  0  0  0
   -2.6285   -7.1970    0.0000 H   0  0  0  0  0  0  0  0  0  0  0  0
   -2.9857   -5.1713    0.0000 C   0  0  0  0  0  0  0  0  0  0  0  0
   -3.5329   -6.6747    0.0000 H   0  0  0  0  0  0  0  0  0  0  0  0
   -4.4891   -5.7185    0.0000 H   0  0  0  0  0  0  0  0  0  0  0  0
   -3.7857   -3.7856    0.0000 C   0  0  0  0  0  0  0  0  0  0  0  0
   -5.0114   -4.8141    0.0000 H   0  0  0  0  0  0  0  0  0  0  0  0
   -5.3613   -3.5079    0.0000 H   0  0  0  0  0  0  0  0  0  0  0  0
   -3.7857   -2.1856    0.0000 C   0  0  0  0  0  0  0  0  0  0  0  0
   -5.3613   -2.4634    0.0000 H   0  0  0  0  0  0  0  0  0  0  0  0
   -5.0114   -1.1571    0.0000 H   0  0  0  0  0  0  0  0  0  0  0  0
   -2.9857   -0.7999    0.0000 C   0  0  0  0  0  0  0  0  0  0  0  0
   -4.4891   -0.2527    0.0000 H   0  0  0  0  0  0  0  0  0  0  0  0
   -3.5329    0.7034    0.0000 H   0  0  0  0  0  0  0  0  0  0  0  0
   -1.6001    0.0001    0.0000 C   0  0  0  0  0  0  0  0  0  0  0  0
   -2.6285    1.2257    0.0000 H   0  0  0  0  0  0  0  0  0  0  0  0
   -1.3222    1.5757    0.0000 H   0  0  0  0  0  0  0  0  0  0  0  0
  1  2  1  0  0  0  0
  1  3  1  0  0  0  0
  1  4  1  0  0  0  0
  4  5  1  0  0  0  0
  4  6  1  0  0  0  0
  4  7  1  0  0  0  0
  7  8  1  0  0  0  0
  7  9  1  0  0  0  0
  7 10  1  0  0  0  0
 10 11  1  0  0  0  0
 10 12  1  0  0  0  0
 10 13  1  0  0  0  0
 13 14  1  0  0  0  0
 13 15  1  0  0  0  0
 13 16  1  0  0  0  0
 16 17  1  0  0  0  0
 16 18  1  0  0  0  0
 16 19  1  0  0  0  0
 19 20  1  0  0  0  0
 19 21  1  0  0  0  0
 19 22  1  0  0  0  0
 22 23  1  0  0  0  0
 22 24  1  0  0  0  0
 22 25  1  0  0  0  0
 25 26  1  0  0  0  0
 25 27  1  0  0  0  0
 25 28  1  0  0  0  0
 28 29  1  0  0  0  0
 28 30  1  0  0  0  0
 28 31  1  0  0  0  0
 31 32  1  0  0  0  0
 31 33  1  0  0  0  0
 31 34  1  0  0  0  0
 34  1  1  0  0  0  0
 34 35  1  0  0  0  0
 34 36  1  0  0  0  0
M  END
> <ChemID>
101589

> <source_casrn>
294-62-2

> <CAS>
294-62-2

> <SMILES>
C1CCCCCCCCCCC1

> <NAME>
CYCLODODECANE

> <preferred_name>
Cyclododecane

> <iupac>
cyclododecane

> <MPID>
20647

> <dsstox_substance_id>
DTXSID9021552

> <Canonical_QSARr>
C1CCCCCCCCCCC1

> <InChI_Code_QSARr>
InChI=1S/C12H24/c1-2-4-6-8-10-12-11-9-7-5-3-1/h1-12H2

> <InChI Key_QSARr>
DDTBPAQBQHZRDW-UHFFFAOYSA-N

> <Salt_Solvent>
?

> <BP>
247.0

$$$$
101594
  -INDIGO-08031720192D

 14 14  0  0  0  0  0  0  0  0999 V2000
   -0.0000   -0.0000    0.0000 C   0  0  0  0  0  0  0  0  0  0  0  0
    1.0706    1.1890    0.0000 C   0  0  0  0  0  0  0  0  0  0  0  0
    0.7379    2.7540    0.0000 H   0  0  0  0  0  0  0  0  0  0  0  0
    2.5322    0.5382    0.0000 C   0  0  0  0  0  0  0  0  0  0  0  0
    3.9179    1.3383    0.0000 C   0  0  0  0  0  0  0  0  0  0  0  0
    5.3036    2.1383    0.0000 H   0  0  0  0  0  0  0  0  0  0  0  0
    5.3036    0.5382    0.0000 H   0  0  0  0  0  0  0  0  0  0  0  0
    3.9179    2.9383    0.0000 H   0  0  0  0  0  0  0  0  0  0  0  0
    2.3651   -1.0530    0.0000 O   0  0  0  0  0  0  0  0  0  0  0  0
    0.8000   -1.3856    0.0000 N   0  0  0  0  0  0  0  0  0  0  0  0
   -1.5912    0.1672    0.0000 C   0  0  0  0  0  0  0  0  0  0  0  0
   -3.1825    0.3345    0.0000 H   0  0  0  0  0  0  0  0  0  0  0  0
   -2.5317   -1.1272    0.0000 H   0  0  0  0  0  0  0  0  0  0  0  0
   -2.2420    1.6289    0.0000 H   0  0  0  0  0  0  0  0  0  0  0  0
  1  2  1  0  0  0  0
  2  3  1  0  0  0  0
  2  4  2  0  0  0  0
  4  5  1  0  0  0  0
  5  6  1  0  0  0  0
  5  7  1  0  0  0  0
  5  8  1  0  0  0  0
  4  9  1  0  0  0  0
  9 10  1  0  0  0  0
 10  1  2  0  0  0  0
  1 11  1  0  0  0  0
 11 12  1  0  0  0  0
 11 13  1  0  0  0  0
 11 14  1  0  0  0  0
M  END
> <ChemID>
101594

> <source_casrn>
300-87-8

> <CAS>
300-87-8

> <SMILES>
Cc1cc(C)[n]o1

> <NAME>
Isoxazole, 3,5-dimethyl-

> <preferred_name>
Isoxazole, 3,5-dimethyl-

> <iupac>
3,5-dimethyl-1,2-oxazole

> <MPID>
20652

> <dsstox_substance_id>
DTXSID6059784

> <Canonical_QSARr>
Cc1cc(C)[n]o1

> <InChI_Code_QSARr>
InChI=1S/C5H7NO/c1-4-3-5(2)7-6-4/h3H,1-2H3

> <InChI Key_QSARr>
FICAQKBMCKEFDI-UHFFFAOYSA-N

> <Salt_Solvent>
?

> <BP>
143.0

$$$$
101598
  -INDIGO-08031720192D

 38 40  0  0  0  0  0  0  0  0999 V2000
   -0.0000   -0.0000    0.0000 C   0  0  0  0  0  0  0  0  0  0  0  0
   -0.8000    1.3856    0.0000 C   0  0  0  0  0  0  0  0  0  0  0  0
    0.2285    2.6113    0.0000 F   0  0  0  0  0  0  0  0  0  0  0  0
   -1.0778    2.9613    0.0000 F   0  0  0  0  0  0  0  0  0  0  0  0
   -2.4000    1.3856    0.0000 C   0  0  0  0  0  0  0  0  0  0  0  0
   -2.1222    2.9613    0.0000 F   0  0  0  0  0  0  0  0  0  0  0  0
   -3.9035    1.9329    0.0000 F   0  0  0  0  0  0  0  0  0  0  0  0
   -3.1999   -0.0000    0.0000 C   0  0  0  0  0  0  0  0  0  0  0  0
   -4.4257    1.0285    0.0000 F   0  0  0  0  0  0  0  0  0  0  0  0
   -4.4257   -1.0284    0.0000 F   0  0  0  0  0  0  0  0  0  0  0  0
   -2.4000   -1.3856    0.0000 C   0  0  0  0  0  0  0  0  0  0  0  0
   -3.9035   -1.9328    0.0000 F   0  0  0  0  0  0  0  0  0  0  0  0
   -2.6778   -2.9614    0.0000 F   0  0  0  0  0  0  0  0  0  0  0  0
   -0.8000   -1.3856    0.0000 C   0  0  0  0  0  0  0  0  0  0  0  0
   -1.6001   -2.7712    0.0000 F   0  0  0  0  0  0  0  0  0  0  0  0
   -0.0000   -2.7712    0.0000 C   0  0  0  0  0  0  0  0  0  0  0  0
   -1.2256   -3.7998    0.0000 F   0  0  0  0  0  0  0  0  0  0  0  0
    0.2778   -4.3470    0.0000 F   0  0  0  0  0  0  0  0  0  0  0  0
    1.6000   -2.7712    0.0000 C   0  0  0  0  0  0  0  0  0  0  0  0
    1.3222   -4.3470    0.0000 F   0  0  0  0  0  0  0  0  0  0  0  0
    2.8256   -3.7998    0.0000 F   0  0  0  0  0  0  0  0  0  0  0  0
    2.4000   -1.3856    0.0000 C   0  0  0  0  0  0  0  0  0  0  0  0
    3.2001   -2.7712    0.0000 F   0  0  0  0  0  0  0  0  0  0  0  0
    1.6000   -0.0000    0.0000 C   0  0  0  0  0  0  0  0  0  0  0  0
    1.3857    0.8000    0.0000 F   0  0  0  0  0  0  0  0  0  0  0  0
    2.4000    1.3856    0.0000 C   0  0  0  0  0  0  0  0  0  0  0  0
    2.6778    2.9613    0.0000 F   0  0  0  0  0  0  0  0  0  0  0  0
    0.8966    1.9329    0.0000 F   0  0  0  0  0  0  0  0  0  0  0  0
    4.0000    1.3856    0.0000 C   0  0  0  0  0  0  0  0  0  0  0  0
    5.5035    1.9329    0.0000 F   0  0  0  0  0  0  0  0  0  0  0  0
    3.7222    2.9613    0.0000 F   0  0  0  0  0  0  0  0  0  0  0  0
    4.7999   -0.0000    0.0000 C   0  0  0  0  0  0  0  0  0  0  0  0
    6.0257   -1.0284    0.0000 F   0  0  0  0  0  0  0  0  0  0  0  0
    6.0257    1.0285    0.0000 F   0  0  0  0  0  0  0  0  0  0  0  0
    4.0000   -1.3856    0.0000 C   0  0  0  0  0  0  0  0  0  0  0  0
    4.2778   -2.9614    0.0000 F   0  0  0  0  0  0  0  0  0  0  0  0
    5.5035   -1.9328    0.0000 F   0  0  0  0  0  0  0  0  0  0  0  0
    0.2832    0.7783    0.0000 F   0  0  0  0  0  0  0  0  0  0  0  0
  1  2  1  0  0  0  0
  2  3  1  0  0  0  0
  2  4  1  0  0  0  0
  2  5  1  0  0  0  0
  5  6  1  0  0  0  0
  5  7  1  0  0  0  0
  5  8  1  0  0  0  0
  8  9  1  0  0  0  0
  8 10  1  0  0  0  0
  8 11  1  0  0  0  0
 11 12  1  0  0  0  0
 11 13  1  0  0  0  0
 11 14  1  0  0  0  0
 14  1  1  0  0  0  0
 14 15  1  0  0  0  0
 14 16  1  0  0  0  0
 16 17  1  0  0  0  0
 16 18  1  0  0  0  0
 16 19  1  0  0  0  0
 19 20  1  0  0  0  0
 19 21  1  0  0  0  0
 19 22  1  0  0  0  0
 22 23  1  0  0  0  0
 22 24  1  0  0  0  0
 24  1  1  0  0  0  0
 24 25  1  0  0  0  0
 24 26  1  0  0  0  0
 26 27  1  0  0  0  0
 26 28  1  0  0  0  0
 26 29  1  0  0  0  0
 29 30  1  0  0  0  0
 29 31  1  0  0  0  0
 29 32  1  0  0  0  0
 32 33  1  0  0  0  0
 32 34  1  0  0  0  0
 32 35  1  0  0  0  0
 35 22  1  0  0  0  0
 35 36  1  0  0  0  0
 35 37  1  0  0  0  0
  1 38  1  0  0  0  0
M  END
> <ChemID>
101598

> <source_casrn>
306-91-2

> <CAS>
306-91-2

> <SMILES>
FC1(F)C2(F)C(F)(C(F)(F)C(F)(F)C3(F)C2(F)C(F)(F)C(F)(F)C(F)(F)C3(F)F)C(F)(F)C(F)(F)C1(F)F

> <NAME>
TETRACOSAFLUOROTETRADECAHYDROPHENANTHRENE

> <preferred_name>
Tetracosafluorotetradecahydrophenanthrene

> <iupac>
tetracosafluorotetradecahydrophenanthrene

> <MPID>
20656

> <dsstox_substance_id>
DTXSID1047029

> <Canonical_QSARr>
FC1(F)C2(F)C(F)(C(F)(F)C(F)(F)C3(F)C2(F)C(F)(F)C(F)(F)C(F)(F)C3(F)F)C(F)(F)C(F)(F)C1(F)F

> <InChI_Code_QSARr>
InChI=1S/C14F24/c15-1-2(16)4(18,10(29,30)14(37,38)12(33,34)6(2,21)22)8(25,26)7(23,24)3(1,17)9(27,28)13(35,36)11(31,32)5(1,19)20

> <InChI Key_QSARr>
QKENRHXGDUPTEM-UHFFFAOYSA-N

> <Salt_Solvent>
?

> <BP>
210.0

$$$$
101604
  -INDIGO-08031720192D

 32 31  0  0  0  0  0  0  0  0999 V2000
    5.5425    1.6000    0.0000 Br  0  0  0  0  0  0  0  0  0  0  0  0
    5.5425    0.0000    0.0000 C   0  0  0  0  0  0  0  0  0  0  0  0
    6.9282    0.8000    0.0000 F   0  0  0  0  0  0  0  0  0  0  0  0
    6.9282   -0.8000    0.0000 F   0  0  0  0  0  0  0  0  0  0  0  0
    4.1570   -0.8000    0.0000 C   0  0  0  0  0  0  0  0  0  0  0  0
    3.5446   -2.2782    0.0000 F   0  0  0  0  0  0  0  0  0  0  0  0
    4.7692   -2.2782    0.0000 F   0  0  0  0  0  0  0  0  0  0  0  0
    2.7713    0.0000    0.0000 C   0  0  0  0  0  0  0  0  0  0  0  0
    3.3835    1.4782    0.0000 F   0  0  0  0  0  0  0  0  0  0  0  0
    2.1589    1.4782    0.0000 F   0  0  0  0  0  0  0  0  0  0  0  0
    1.3856   -0.8000    0.0000 C   0  0  0  0  0  0  0  0  0  0  0  0
    0.7732   -2.2782    0.0000 F   0  0  0  0  0  0  0  0  0  0  0  0
    1.9980   -2.2782    0.0000 F   0  0  0  0  0  0  0  0  0  0  0  0
   -0.0001    0.0000    0.0000 C   0  0  0  0  0  0  0  0  0  0  0  0
    0.6123    1.4782    0.0000 F   0  0  0  0  0  0  0  0  0  0  0  0
   -0.6122    1.4782    0.0000 F   0  0  0  0  0  0  0  0  0  0  0  0
   -1.3856   -0.8000    0.0000 C   0  0  0  0  0  0  0  0  0  0  0  0
   -1.9979   -2.2782    0.0000 F   0  0  0  0  0  0  0  0  0  0  0  0
   -0.7734   -2.2782    0.0000 F   0  0  0  0  0  0  0  0  0  0  0  0
   -2.7713    0.0000    0.0000 C   0  0  0  0  0  0  0  0  0  0  0  0
   -2.1589    1.4782    0.0000 F   0  0  0  0  0  0  0  0  0  0  0  0
   -3.3836    1.4782    0.0000 F   0  0  0  0  0  0  0  0  0  0  0  0
   -4.1570   -0.8000    0.0000 C   0  0  0  0  0  0  0  0  0  0  0  0
   -4.7691   -2.2782    0.0000 F   0  0  0  0  0  0  0  0  0  0  0  0
   -3.5446   -2.2782    0.0000 F   0  0  0  0  0  0  0  0  0  0  0  0
   -5.5427    0.0000    0.0000 C   0  0  0  0  0  0  0  0  0  0  0  0
   -4.9303    1.4782    0.0000 F   0  0  0  0  0  0  0  0  0  0  0  0
   -6.1548    1.4782    0.0000 F   0  0  0  0  0  0  0  0  0  0  0  0
   -6.9281   -0.8000    0.0000 C   0  0  0  0  0  0  0  0  0  0  0  0
   -8.3138   -1.6000    0.0000 F   0  0  0  0  0  0  0  0  0  0  0  0
   -8.3138    0.0000    0.0000 F   0  0  0  0  0  0  0  0  0  0  0  0
   -6.9281   -2.4000    0.0000 F   0  0  0  0  0  0  0  0  0  0  0  0
  1  2  1  0  0  0  0
  2  3  1  0  0  0  0
  2  4  1  0  0  0  0
  2  5  1  0  0  0  0
  5  6  1  0  0  0  0
  5  7  1  0  0  0  0
  5  8  1  0  0  0  0
  8  9  1  0  0  0  0
  8 10  1  0  0  0  0
  8 11  1  0  0  0  0
 11 12  1  0  0  0  0
 11 13  1  0  0  0  0
 11 14  1  0  0  0  0
 14 15  1  0  0  0  0
 14 16  1  0  0  0  0
 14 17  1  0  0  0  0
 17 18  1  0  0  0  0
 17 19  1  0  0  0  0
 17 20  1  0  0  0  0
 20 21  1  0  0  0  0
 20 22  1  0  0  0  0
 20 23  1  0  0  0  0
 23 24  1  0  0  0  0
 23 25  1  0  0  0  0
 23 26  1  0  0  0  0
 26 27  1  0  0  0  0
 26 28  1  0  0  0  0
 26 29  1  0  0  0  0
 29 30  1  0  0  0  0
 29 31  1  0  0  0  0
 29 32  1  0  0  0  0
M  END
> <ChemID>
101604

> <source_casrn>
307-43-7

> <CAS>
307-43-7

> <SMILES>
FC(F)(F)C(F)(F)C(F)(F)C(F)(F)C(F)(F)C(F)(F)C(F)(F)C(F)(F)C(F)(F)C(F)(F)Br

> <NAME>
1-Bromo-perfluorodecane

> <preferred_name>
Perflubrodec

> <iupac>
1-bromo-1,1,2,2,3,3,4,4,5,5,6,6,7,7,8,8,9,9,10,10,10-henicosafluorodecane

> <MPID>
20660

> <dsstox_substance_id>
DTXSID70184725

> <Canonical_QSARr>
FC(F)(F)C(F)(F)C(F)(F)C(F)(F)C(F)(F)C(F)(F)C(F)(F)C(F)(F)C(F)(F)C(F)(F)Br

> <InChI_Code_QSARr>
InChI=1S/C10BrF21/c11-9(28,29)7(24,25)5(20,21)3(16,17)1(12,13)2(14,15)4(18,19)6(22,23)8(26,27)10(30,31)32

> <InChI Key_QSARr>
JCAULFRGWRHHIG-UHFFFAOYSA-N

> <Salt_Solvent>
?

> <BP>
198.0

$$$$
101608
  -INDIGO-08031720192D

 40 39  0  0  0  0  0  0  0  0999 V2000
    1.6000    0.0000    0.0000 C   0  0  0  0  0  0  0  0  0  0  0  0
    2.6285    1.2257    0.0000 C   0  0  0  0  0  0  0  0  0  0  0  0
    4.2041    0.9478    0.0000 C   0  0  0  0  0  0  0  0  0  0  0  0
    5.2326    2.1735    0.0000 C   0  0  0  0  0  0  0  0  0  0  0  0
    6.2610    3.3992    0.0000 F   0  0  0  0  0  0  0  0  0  0  0  0
    6.8083    1.8957    0.0000 F   0  0  0  0  0  0  0  0  0  0  0  0
    4.6853    3.6769    0.0000 F   0  0  0  0  0  0  0  0  0  0  0  0
    5.2850   -0.2319    0.0000 F   0  0  0  0  0  0  0  0  0  0  0  0
    4.1343   -0.6507    0.0000 F   0  0  0  0  0  0  0  0  0  0  0  0
    1.5475    2.4054    0.0000 F   0  0  0  0  0  0  0  0  0  0  0  0
    2.6983    2.8242    0.0000 F   0  0  0  0  0  0  0  0  0  0  0  0
    0.0001    0.0000    0.0000 N   0  0  0  0  0  0  0  0  0  0  0  0
   -0.8000    1.3856    0.0000 C   0  0  0  0  0  0  0  0  0  0  0  0
   -2.3757    1.6635    0.0000 C   0  0  0  0  0  0  0  0  0  0  0  0
   -2.9230    3.1670    0.0000 C   0  0  0  0  0  0  0  0  0  0  0  0
   -4.4986    3.4449    0.0000 C   0  0  0  0  0  0  0  0  0  0  0  0
   -6.0743    3.7226    0.0000 F   0  0  0  0  0  0  0  0  0  0  0  0
   -5.0458    4.9483    0.0000 F   0  0  0  0  0  0  0  0  0  0  0  0
   -5.5270    2.2192    0.0000 F   0  0  0  0  0  0  0  0  0  0  0  0
   -2.4418    4.6929    0.0000 F   0  0  0  0  0  0  0  0  0  0  0  0
   -1.5037    3.9057    0.0000 F   0  0  0  0  0  0  0  0  0  0  0  0
   -2.8568    0.1376    0.0000 F   0  0  0  0  0  0  0  0  0  0  0  0
   -3.7948    0.9248    0.0000 F   0  0  0  0  0  0  0  0  0  0  0  0
   -0.5912    2.9719    0.0000 F   0  0  0  0  0  0  0  0  0  0  0  0
    0.4693    2.3597    0.0000 F   0  0  0  0  0  0  0  0  0  0  0  0
   -0.8000   -1.3856    0.0000 C   0  0  0  0  0  0  0  0  0  0  0  0
   -0.2527   -2.8892    0.0000 C   0  0  0  0  0  0  0  0  0  0  0  0
   -1.2812   -4.1147    0.0000 C   0  0  0  0  0  0  0  0  0  0  0  0
   -0.7339   -5.6184    0.0000 C   0  0  0  0  0  0  0  0  0  0  0  0
   -0.1869   -7.1218    0.0000 F   0  0  0  0  0  0  0  0  0  0  0  0
   -1.7624   -6.8439    0.0000 F   0  0  0  0  0  0  0  0  0  0  0  0
    0.8416   -5.8961    0.0000 F   0  0  0  0  0  0  0  0  0  0  0  0
   -2.8434   -4.4612    0.0000 F   0  0  0  0  0  0  0  0  0  0  0  0
   -2.6307   -3.2552    0.0000 F   0  0  0  0  0  0  0  0  0  0  0  0
    1.3093   -2.5428    0.0000 F   0  0  0  0  0  0  0  0  0  0  0  0
    1.0966   -3.7488    0.0000 F   0  0  0  0  0  0  0  0  0  0  0  0
   -2.2782   -1.9980    0.0000 F   0  0  0  0  0  0  0  0  0  0  0  0
   -2.2782   -0.7734    0.0000 F   0  0  0  0  0  0  0  0  0  0  0  0
    2.8693   -0.9739    0.0000 F   0  0  0  0  0  0  0  0  0  0  0  0
    1.8088   -1.5863    0.0000 F   0  0  0  0  0  0  0  0  0  0  0  0
  1  2  1  0  0  0  0
  2  3  1  0  0  0  0
  3  4  1  0  0  0  0
  4  5  1  0  0  0  0
  4  6  1  0  0  0  0
  4  7  1  0  0  0  0
  3  8  1  0  0  0  0
  3  9  1  0  0  0  0
  2 10  1  0  0  0  0
  2 11  1  0  0  0  0
  1 12  1  0  0  0  0
 12 13  1  0  0  0  0
 13 14  1  0  0  0  0
 14 15  1  0  0  0  0
 15 16  1  0  0  0  0
 16 17  1  0  0  0  0
 16 18  1  0  0  0  0
 16 19  1  0  0  0  0
 15 20  1  0  0  0  0
 15 21  1  0  0  0  0
 14 22  1  0  0  0  0
 14 23  1  0  0  0  0
 13 24  1  0  0  0  0
 13 25  1  0  0  0  0
 12 26  1  0  0  0  0
 26 27  1  0  0  0  0
 27 28  1  0  0  0  0
 28 29  1  0  0  0  0
 29 30  1  0  0  0  0
 29 31  1  0  0  0  0
 29 32  1  0  0  0  0
 28 33  1  0  0  0  0
 28 34  1  0  0  0  0
 27 35  1  0  0  0  0
 27 36  1  0  0  0  0
 26 37  1  0  0  0  0
 26 38  1  0  0  0  0
  1 39  1  0  0  0  0
  1 40  1  0  0  0  0
M  END
> <ChemID>
101608

> <source_casrn>
311-89-7

> <CAS>
311-89-7

> <SMILES>
FC(F)(F)C(F)(F)C(F)(F)C(F)(F)N(C(F)(F)C(F)(F)C(F)(F)C(F)(F)F)C(F)(F)C(F)(F)C(F)(F)C(F)(F)F

> <NAME>
HEPTACOSAFLUOROTRIBUTYLAMINE

> <preferred_name>
Perfluorotributylamine

> <iupac>
1,1,2,2,3,3,4,4,4-nonafluoro-N,N-bis(nonafluorobutyl)butan-1-amine

> <MPID>
20664

> <dsstox_substance_id>
DTXSID0027141

> <Canonical_QSARr>
FC(F)(F)C(F)(F)C(F)(F)C(F)(F)N(C(F)(F)C(F)(F)C(F)(F)C(F)(F)F)C(F)(F)C(F)(F)C(F)(F)C(F)(F)F

> <InChI_Code_QSARr>
InChI=1S/C12F27N/c13-1(14,7(25,26)27)4(19,20)10(34,35)40(11(36,37)5(21,22)2(15,16)8(28,29)30)12(38,39)6(23,24)3(17,18)9(31,32)33

> <InChI Key_QSARr>
RVZRBWKZFJCCIB-UHFFFAOYSA-N

> <Salt_Solvent>
?

> <BP>
178.0

$$$$
101613
  -INDIGO-08031720192D

 15 15  0  0  0  0  0  0  0  0999 V2000
    2.4001    1.3856    0.0000 C   0  0  0  0  0  0  0  0  0  0  0  0
    3.2000    2.7713    0.0000 H   0  0  0  0  0  0  0  0  0  0  0  0
    0.7999    1.3856    0.0000 C   0  0  0  0  0  0  0  0  0  0  0  0
    0.0000    2.7713    0.0000 Cl  0  0  0  0  0  0  0  0  0  0  0  0
    0.0000    0.0000    0.0000 C   0  0  0  0  0  0  0  0  0  0  0  0
   -1.6000    0.0000    0.0000 C   0  0  0  0  0  0  0  0  0  0  0  0
   -3.2000    0.0000    0.0000 F   0  0  0  0  0  0  0  0  0  0  0  0
   -2.4001   -1.3856    0.0000 F   0  0  0  0  0  0  0  0  0  0  0  0
   -2.4001    1.3856    0.0000 F   0  0  0  0  0  0  0  0  0  0  0  0
    0.8001   -1.3856    0.0000 C   0  0  0  0  0  0  0  0  0  0  0  0
    0.0000   -2.7713    0.0000 H   0  0  0  0  0  0  0  0  0  0  0  0
    2.4001   -1.3856    0.0000 C   0  0  0  0  0  0  0  0  0  0  0  0
    3.2000   -2.7713    0.0000 H   0  0  0  0  0  0  0  0  0  0  0  0
    3.2000   -0.0000    0.0000 C   0  0  0  0  0  0  0  0  0  0  0  0
    4.8000    0.0000    0.0000 Cl  0  0  0  0  0  0  0  0  0  0  0  0
  1  2  1  0  0  0  0
  1  3  1  0  0  0  0
  3  4  1  0  0  0  0
  3  5  2  0  0  0  0
  5  6  1  0  0  0  0
  6  7  1  0  0  0  0
  6  8  1  0  0  0  0
  6  9  1  0  0  0  0
  5 10  1  0  0  0  0
 10 11  1  0  0  0  0
 10 12  2  0  0  0  0
 12 13  1  0  0  0  0
 12 14  1  0  0  0  0
 14  1  2  0  0  0  0
 14 15  1  0  0  0  0
M  END
> <ChemID>
101613

> <source_casrn>
320-60-5

> <CAS>
320-60-5

> <SMILES>
FC(F)(F)c1ccc(Cl)cc1Cl

> <NAME>
2,4-DICHLORO(TRIFLUOROMETHYL)BENZENE

> <preferred_name>
2,4-Dichlorobenzotrifluoride

> <iupac>
2,4-dichloro-1-(trifluoromethyl)benzene

> <MPID>
20668

> <dsstox_substance_id>
DTXSID0047959

> <Canonical_QSARr>
FC(F)(F)c1ccc(Cl)cc1Cl

> <InChI_Code_QSARr>
InChI=1S/C7H3Cl2F3/c8-4-1-2-5(6(9)3-4)7(10,11)12/h1-3H

> <InChI Key_QSARr>
KALSHRGEFLVFHE-UHFFFAOYSA-N

> <Salt_Solvent>
?

> <BP>
177.52

$$$$
101618
  -INDIGO-08031720192D

 18 19  0  0  0  0  0  0  0  0999 V2000
   -4.1569    2.4000    0.0000 F   0  0  0  0  0  0  0  0  0  0  0  0
   -2.7712    1.6000    0.0000 C   0  0  0  0  0  0  0  0  0  0  0  0
   -1.3856    2.4000    0.0000 C   0  0  0  0  0  0  0  0  0  0  0  0
   -1.3856    4.0000    0.0000 H   0  0  0  0  0  0  0  0  0  0  0  0
    0.0001    1.6000    0.0000 C   0  0  0  0  0  0  0  0  0  0  0  0
    0.0001    0.0000    0.0000 C   0  0  0  0  0  0  0  0  0  0  0  0
    1.3856   -0.8000    0.0000 C   0  0  0  0  0  0  0  0  0  0  0  0
    1.3856   -2.4000    0.0000 H   0  0  0  0  0  0  0  0  0  0  0  0
    2.7713    0.0000    0.0000 C   0  0  0  0  0  0  0  0  0  0  0  0
    4.1569   -0.8000    0.0000 H   0  0  0  0  0  0  0  0  0  0  0  0
    2.7713    1.6000    0.0000 C   0  0  0  0  0  0  0  0  0  0  0  0
    4.1569    2.4000    0.0000 H   0  0  0  0  0  0  0  0  0  0  0  0
    1.3856    2.4000    0.0000 C   0  0  0  0  0  0  0  0  0  0  0  0
    1.3856    4.0000    0.0000 H   0  0  0  0  0  0  0  0  0  0  0  0
   -1.3856   -0.8000    0.0000 C   0  0  0  0  0  0  0  0  0  0  0  0
   -1.3856   -2.4000    0.0000 H   0  0  0  0  0  0  0  0  0  0  0  0
   -2.7712    0.0000    0.0000 C   0  0  0  0  0  0  0  0  0  0  0  0
   -4.1569   -0.8000    0.0000 H   0  0  0  0  0  0  0  0  0  0  0  0
  1  2  1  0  0  0  0
  2  3  1  0  0  0  0
  3  4  1  0  0  0  0
  3  5  2  0  0  0  0
  5  6  1  0  0  0  0
  6  7  1  0  0  0  0
  7  8  1  0  0  0  0
  7  9  2  0  0  0  0
  9 10  1  0  0  0  0
  9 11  1  0  0  0  0
 11 12  1  0  0  0  0
 11 13  2  0  0  0  0
 13  5  1  0  0  0  0
 13 14  1  0  0  0  0
  6 15  2  0  0  0  0
 15 16  1  0  0  0  0
 15 17  1  0  0  0  0
 17  2  2  0  0  0  0
 17 18  1  0  0  0  0
M  END
> <ChemID>
101618

> <source_casrn>
323-09-1

> <CAS>
323-09-1

> <SMILES>
Fc1cc2ccccc2cc1

> <NAME>
NAPHTHALENE, 2-FLUORO-

> <preferred_name>
2-Fluoronaphthalene

> <iupac>
2-Fluoronaphthalene

> <MPID>
20672

> <dsstox_substance_id>
DTXSID80186033

> <Canonical_QSARr>
Fc1cc2ccccc2cc1

> <InChI_Code_QSARr>
InChI=1S/C10H7F/c11-10-6-5-8-3-1-2-4-9(8)7-10/h1-7H

> <InChI Key_QSARr>
BAGQBTMEEISJLK-UHFFFAOYSA-N

> <Salt_Solvent>
?

> <BP>
212.0

$$$$
101622
  -INDIGO-08031720192D

 15 15  0  0  0  0  0  0  0  0999 V2000
    3.2000   -0.0000    0.0000 C   0  0  0  0  0  0  0  0  0  0  0  0
    2.4001    1.3856    0.0000 C   0  0  0  0  0  0  0  0  0  0  0  0
    3.2000    2.7713    0.0000 H   0  0  0  0  0  0  0  0  0  0  0  0
    0.7999    1.3856    0.0000 C   0  0  0  0  0  0  0  0  0  0  0  0
    0.0000    2.7713    0.0000 H   0  0  0  0  0  0  0  0  0  0  0  0
    0.0000   -0.0000    0.0000 C   0  0  0  0  0  0  0  0  0  0  0  0
   -1.6000   -0.0000    0.0000 C   0  0  0  0  0  0  0  0  0  0  0  0
   -3.2000   -0.0000    0.0000 F   0  0  0  0  0  0  0  0  0  0  0  0
   -2.4001   -1.3856    0.0000 F   0  0  0  0  0  0  0  0  0  0  0  0
   -2.4001    1.3856    0.0000 F   0  0  0  0  0  0  0  0  0  0  0  0
    0.7999   -1.3856    0.0000 C   0  0  0  0  0  0  0  0  0  0  0  0
    0.0000   -2.7713    0.0000 H   0  0  0  0  0  0  0  0  0  0  0  0
    2.4001   -1.3856    0.0000 C   0  0  0  0  0  0  0  0  0  0  0  0
    3.2000   -2.7713    0.0000 Cl  0  0  0  0  0  0  0  0  0  0  0  0
    4.8000   -0.0000    0.0000 Cl  0  0  0  0  0  0  0  0  0  0  0  0
  1  2  1  0  0  0  0
  2  3  1  0  0  0  0
  2  4  2  0  0  0  0
  4  5  1  0  0  0  0
  4  6  1  0  0  0  0
  6  7  1  0  0  0  0
  7  8  1  0  0  0  0
  7  9  1  0  0  0  0
  7 10  1  0  0  0  0
  6 11  2  0  0  0  0
 11 12  1  0  0  0  0
 11 13  1  0  0  0  0
 13  1  2  0  0  0  0
 13 14  1  0  0  0  0
  1 15  1  0  0  0  0
M  END
> <ChemID>
101622

> <source_casrn>
328-84-7

> <CAS>
328-84-7

> <SMILES>
FC(F)(F)c1cc(Cl)c(Cl)cc1

> <NAME>
3,4-DICHLOROBENZOTRIFLUORIDE

> <preferred_name>
1,2-Dichloro-4-(trifluoromethyl)benzene

> <iupac>
1,2-dichloro-4-(trifluoromethyl)benzene

> <MPID>
20676

> <dsstox_substance_id>
DTXSID5027142

> <Canonical_QSARr>
FC(F)(F)c1cc(Cl)c(Cl)cc1

> <InChI_Code_QSARr>
InChI=1S/C7H3Cl2F3/c8-5-2-1-4(3-6(5)9)7(10,11)12/h1-3H

> <InChI Key_QSARr>
XILPLWOGHPSJBK-UHFFFAOYSA-N

> <Salt_Solvent>
?

> <BP>
173.5

$$$$
101626
  -INDIGO-08031720192D

 15 14  0  0  0  0  0  0  0  0999 V2000
    1.3856    2.4000    0.0000 F   0  0  0  0  0  0  0  0  0  0  0  0
    1.3856    0.8000    0.0000 C   0  0  0  0  0  0  0  0  0  0  0  0
    2.7713    1.6000    0.0000 F   0  0  0  0  0  0  0  0  0  0  0  0
    2.7713    0.0000    0.0000 F   0  0  0  0  0  0  0  0  0  0  0  0
    0.0000    0.0000    0.0000 C   0  0  0  0  0  0  0  0  0  0  0  0
    0.6122   -1.4782    0.0000 H   0  0  0  0  0  0  0  0  0  0  0  0
   -0.6122   -1.4782    0.0000 H   0  0  0  0  0  0  0  0  0  0  0  0
   -1.3857    0.8000    0.0000 O   0  0  0  0  0  0  0  0  0  0  0  0
   -2.7713    0.0000    0.0000 C   0  0  0  0  0  0  0  0  0  0  0  0
   -2.1590   -1.4782    0.0000 H   0  0  0  0  0  0  0  0  0  0  0  0
   -3.3835   -1.4782    0.0000 H   0  0  0  0  0  0  0  0  0  0  0  0
   -4.1569    0.8000    0.0000 C   0  0  0  0  0  0  0  0  0  0  0  0
   -5.5426    1.6000    0.0000 F   0  0  0  0  0  0  0  0  0  0  0  0
   -5.5426    0.0000    0.0000 F   0  0  0  0  0  0  0  0  0  0  0  0
   -4.1569    2.4000    0.0000 F   0  0  0  0  0  0  0  0  0  0  0  0
  1  2  1  0  0  0  0
  2  3  1  0  0  0  0
  2  4  1  0  0  0  0
  2  5  1  0  0  0  0
  5  6  1  0  0  0  0
  5  7  1  0  0  0  0
  5  8  1  0  0  0  0
  8  9  1  0  0  0  0
  9 10  1  0  0  0  0
  9 11  1  0  0  0  0
  9 12  1  0  0  0  0
 12 13  1  0  0  0  0
 12 14  1  0  0  0  0
 12 15  1  0  0  0  0
M  END
> <ChemID>
101626

> <source_casrn>
333-36-8

> <CAS>
333-36-8

> <SMILES>
FC(F)(F)COCC(F)(F)F

> <NAME>
Flurothyl

> <preferred_name>
Flurothyl

> <iupac>
bis(2,2,2-trifluoroethyl) ether

> <MPID>
20680

> <dsstox_substance_id>
DTXSID5046516

> <Canonical_QSARr>
FC(F)(F)COCC(F)(F)F

> <InChI_Code_QSARr>
InChI=1S/C4H4F6O/c5-3(6,7)1-11-2-4(8,9)10/h1-2H2

> <InChI Key_QSARr>
KGPPDNUWZNWPSI-UHFFFAOYSA-N

> <Salt_Solvent>
?

> <BP>
63.9

$$$$
101631
  -INDIGO-08031720192D

 14 13  0  0  0  0  0  0  0  0999 V2000
   -1.3856   -0.8000    0.0000 C   0  0  0  0  0  0  0  0  0  0  0  0
    0.0000    0.0000    0.0000 C   0  0  0  0  0  0  0  0  0  0  0  0
    1.3856   -0.8000    0.0000 C   0  0  0  0  0  0  0  0  0  0  0  0
    2.7713    0.0000    0.0000 C   0  0  0  0  0  0  0  0  0  0  0  0
    4.1569    0.8000    0.0000 F   0  0  0  0  0  0  0  0  0  0  0  0
    4.1569   -0.8000    0.0000 F   0  0  0  0  0  0  0  0  0  0  0  0
    2.7713    1.6000    0.0000 F   0  0  0  0  0  0  0  0  0  0  0  0
    1.9980   -2.2782    0.0000 Cl  0  0  0  0  0  0  0  0  0  0  0  0
    0.7733   -2.2782    0.0000 F   0  0  0  0  0  0  0  0  0  0  0  0
   -0.6123    1.4782    0.0000 Cl  0  0  0  0  0  0  0  0  0  0  0  0
    0.6123    1.4782    0.0000 Cl  0  0  0  0  0  0  0  0  0  0  0  0
   -2.7713   -1.6000    0.0000 F   0  0  0  0  0  0  0  0  0  0  0  0
   -2.7713    0.0000    0.0000 F   0  0  0  0  0  0  0  0  0  0  0  0
   -1.3856   -2.4000    0.0000 F   0  0  0  0  0  0  0  0  0  0  0  0
  1  2  1  0  0  0  0
  2  3  1  0  0  0  0
  3  4  1  0  0  0  0
  4  5  1  0  0  0  0
  4  6  1  0  0  0  0
  4  7  1  0  0  0  0
  3  8  1  0  0  0  0
  3  9  1  0  0  0  0
  2 10  1  0  0  0  0
  2 11  1  0  0  0  0
  1 12  1  0  0  0  0
  1 13  1  0  0  0  0
  1 14  1  0  0  0  0
M  END
> <ChemID>
101631

> <source_casrn>
335-44-4

> <CAS>
NOCAS_871633

> <SMILES>
FC(Cl)(C(Cl)(Cl)C(F)(F)F)C(F)(F)F

> <NAME>
Butane, 2,2,3-trichloro-1,1,1,3,4,4,4-heptafluor

> <preferred_name>


> <iupac>


> <MPID>
20684

> <dsstox_substance_id>
DTXSID20871633

> <Canonical_QSARr>
FC(Cl)(C(Cl)(Cl)C(F)(F)F)C(F)(F)F

> <InChI_Code_QSARr>
InChI=1S/C4Cl3F7/c5-1(6,3(9,10)11)2(7,8)4(12,13)14

> <InChI Key_QSARr>
ZPGMWBFCBUKITA-UHFFFAOYSA-N

> <Salt_Solvent>
?

> <BP>
98.0

$$$$
101635
  -INDIGO-08031720192D

 23 22  0  0  0  0  0  0  0  0999 V2000
    4.1569    2.4000    0.0000 F   0  0  0  0  0  0  0  0  0  0  0  0
    4.1569    0.8000    0.0000 C   0  0  0  0  0  0  0  0  0  0  0  0
    5.5426    1.6000    0.0000 F   0  0  0  0  0  0  0  0  0  0  0  0
    5.5426    0.0000    0.0000 F   0  0  0  0  0  0  0  0  0  0  0  0
    2.7712    0.0000    0.0000 C   0  0  0  0  0  0  0  0  0  0  0  0
    3.3836   -1.4782    0.0000 F   0  0  0  0  0  0  0  0  0  0  0  0
    2.1589   -1.4782    0.0000 F   0  0  0  0  0  0  0  0  0  0  0  0
    1.3856    0.8000    0.0000 C   0  0  0  0  0  0  0  0  0  0  0  0
    0.7734    2.2782    0.0000 F   0  0  0  0  0  0  0  0  0  0  0  0
    1.9979    2.2782    0.0000 F   0  0  0  0  0  0  0  0  0  0  0  0
    0.0001    0.0000    0.0000 C   0  0  0  0  0  0  0  0  0  0  0  0
    0.6122   -1.4782    0.0000 F   0  0  0  0  0  0  0  0  0  0  0  0
   -0.6122   -1.4782    0.0000 F   0  0  0  0  0  0  0  0  0  0  0  0
   -1.3856    0.8000    0.0000 C   0  0  0  0  0  0  0  0  0  0  0  0
   -1.9979    2.2782    0.0000 F   0  0  0  0  0  0  0  0  0  0  0  0
   -0.7734    2.2782    0.0000 F   0  0  0  0  0  0  0  0  0  0  0  0
   -2.7712    0.0000    0.0000 C   0  0  0  0  0  0  0  0  0  0  0  0
   -2.1589   -1.4782    0.0000 F   0  0  0  0  0  0  0  0  0  0  0  0
   -3.3836   -1.4782    0.0000 F   0  0  0  0  0  0  0  0  0  0  0  0
   -4.1569    0.8000    0.0000 C   0  0  0  0  0  0  0  0  0  0  0  0
   -5.5426    1.6000    0.0000 F   0  0  0  0  0  0  0  0  0  0  0  0
   -5.5426    0.0000    0.0000 F   0  0  0  0  0  0  0  0  0  0  0  0
   -4.1569    2.4000    0.0000 I   0  0  0  0  0  0  0  0  0  0  0  0
  1  2  1  0  0  0  0
  2  3  1  0  0  0  0
  2  4  1  0  0  0  0
  2  5  1  0  0  0  0
  5  6  1  0  0  0  0
  5  7  1  0  0  0  0
  5  8  1  0  0  0  0
  8  9  1  0  0  0  0
  8 10  1  0  0  0  0
  8 11  1  0  0  0  0
 11 12  1  0  0  0  0
 11 13  1  0  0  0  0
 11 14  1  0  0  0  0
 14 15  1  0  0  0  0
 14 16  1  0  0  0  0
 14 17  1  0  0  0  0
 17 18  1  0  0  0  0
 17 19  1  0  0  0  0
 17 20  1  0  0  0  0
 20 21  1  0  0  0  0
 20 22  1  0  0  0  0
 20 23  1  0  0  0  0
M  END
> <ChemID>
101635

> <source_casrn>
335-58-0

> <CAS>
335-58-0

> <SMILES>
FC(F)(F)C(F)(F)C(F)(F)C(F)(F)C(F)(F)C(F)(F)C(F)(F)I

> <NAME>
Heptane, pentadecafluoro-7-iodo-

> <preferred_name>
Heptane, 1,1,1,2,2,3,3,4,4,5,5,6,6,7,7-pentadecafluoro-7-iodo-

> <iupac>
1,1,1,2,2,3,3,4,4,5,5,6,6,7,7-Pentadecafluoro-7-iodoheptane

> <MPID>
20688

> <dsstox_substance_id>
DTXSID5059828

> <Canonical_QSARr>
FC(F)(F)C(F)(F)C(F)(F)C(F)(F)C(F)(F)C(F)(F)C(F)(F)I

> <InChI_Code_QSARr>
InChI=1S/C7F15I/c8-1(9,2(10,11)4(14,15)6(18,19)20)3(12,13)5(16,17)7(21,22)23

> <InChI Key_QSARr>
AHUMDLIBMIYQMU-UHFFFAOYSA-N

> <Salt_Solvent>
?

> <BP>
137.5

$$$$
101639
  -INDIGO-08031720192D

 11 10  0  0  0  0  0  0  0  0999 V2000
   -1.3856    0.8000    0.0000 C   0  0  0  0  0  0  0  0  0  0  0  0
    0.0000    0.0000    0.0000 C   0  0  0  0  0  0  0  0  0  0  0  0
   -0.6123   -1.4782    0.0000 H   0  0  0  0  0  0  0  0  0  0  0  0
    1.3856    0.8000    0.0000 C   0  0  0  0  0  0  0  0  0  0  0  0
    2.7713    1.6000    0.0000 H   0  0  0  0  0  0  0  0  0  0  0  0
    2.7713    0.0000    0.0000 H   0  0  0  0  0  0  0  0  0  0  0  0
    1.3856    2.4000    0.0000 Cl  0  0  0  0  0  0  0  0  0  0  0  0
    0.6123   -1.4782    0.0000 Cl  0  0  0  0  0  0  0  0  0  0  0  0
   -2.7713    1.6000    0.0000 F   0  0  0  0  0  0  0  0  0  0  0  0
   -2.7713    0.0000    0.0000 F   0  0  0  0  0  0  0  0  0  0  0  0
   -1.3856    2.4000    0.0000 F   0  0  0  0  0  0  0  0  0  0  0  0
  1  2  1  0  0  0  0
  2  3  1  0  0  0  0
  2  4  1  0  0  0  0
  4  5  1  0  0  0  0
  4  6  1  0  0  0  0
  4  7  1  0  0  0  0
  2  8  1  0  0  0  0
  1  9  1  0  0  0  0
  1 10  1  0  0  0  0
  1 11  1  0  0  0  0
M  END
> <ChemID>
101639

> <source_casrn>
338-75-0

> <CAS>
NOCAS_870507

> <SMILES>
FC(F)(F)C(Cl)CCl

> <NAME>
Propane, 2,3-dichloro-1,1,1-trifluoro-

> <preferred_name>


> <iupac>


> <MPID>
20692

> <dsstox_substance_id>
DTXSID40870507

> <Canonical_QSARr>
FC(F)(F)C(Cl)CCl

> <InChI_Code_QSARr>
InChI=1S/C3H3Cl2F3/c4-1-2(5)3(6,7)8/h2H,1H2

> <InChI Key_QSARr>
QJMGASHUZRHZBT-UHFFFAOYSA-N

> <Salt_Solvent>
?

> <BP>
76.9

$$$$
101643
  -INDIGO-08031720192D

 12 12  0  0  0  0  0  0  0  0999 V2000
   -0.0000   -0.0000    0.0000 C   0  0  0  0  0  0  0  0  0  0  0  0
    0.8000   -1.3857    0.0000 C   0  0  0  0  0  0  0  0  0  0  0  0
    2.4000   -1.3857    0.0000 Cl  0  0  0  0  0  0  0  0  0  0  0  0
   -0.0000   -2.7713    0.0000 C   0  0  0  0  0  0  0  0  0  0  0  0
    0.8000   -4.1569    0.0000 H   0  0  0  0  0  0  0  0  0  0  0  0
   -1.6000   -2.7713    0.0000 C   0  0  0  0  0  0  0  0  0  0  0  0
   -2.4000   -4.1569    0.0000 H   0  0  0  0  0  0  0  0  0  0  0  0
   -2.4000   -1.3856    0.0000 C   0  0  0  0  0  0  0  0  0  0  0  0
   -4.0000   -1.3856    0.0000 H   0  0  0  0  0  0  0  0  0  0  0  0
   -1.6000   -0.0000    0.0000 C   0  0  0  0  0  0  0  0  0  0  0  0
   -2.4000    1.3856    0.0000 H   0  0  0  0  0  0  0  0  0  0  0  0
    0.8000    1.3856    0.0000 F   0  0  0  0  0  0  0  0  0  0  0  0
  1  2  1  0  0  0  0
  2  3  1  0  0  0  0
  2  4  2  0  0  0  0
  4  5  1  0  0  0  0
  4  6  1  0  0  0  0
  6  7  1  0  0  0  0
  6  8  2  0  0  0  0
  8  9  1  0  0  0  0
  8 10  1  0  0  0  0
 10  1  2  0  0  0  0
 10 11  1  0  0  0  0
  1 12  1  0  0  0  0
M  END
> <ChemID>
101643

> <source_casrn>
348-51-6

> <CAS>
348-51-6

> <SMILES>
Fc1ccccc1Cl

> <NAME>
1-CHLORO-2-FLUOROBENZENE

> <preferred_name>
o-Chlorofluorobenzene

> <iupac>
1-Chloro-2-fluorobenzene

> <MPID>
20696

> <dsstox_substance_id>
DTXSID8059841

> <Canonical_QSARr>
Fc1ccccc1Cl

> <InChI_Code_QSARr>
InChI=1S/C6H4ClF/c7-5-3-1-2-4-6(5)8/h1-4H

> <InChI Key_QSARr>
ZCJAYDKWZAWMPR-UHFFFAOYSA-N

> <Salt_Solvent>
?

> <BP>
137.6

$$$$
101647
  -INDIGO-08031720192D

 16 16  0  0  0  0  0  0  0  0999 V2000
    1.3856    0.8000    0.0000 C   0  0  0  0  0  0  0  0  0  0  0  0
    2.7713    0.0000    0.0000 C   0  0  0  0  0  0  0  0  0  0  0  0
    4.1569   -0.8000    0.0000 H   0  0  0  0  0  0  0  0  0  0  0  0
    4.1569    0.8000    0.0000 H   0  0  0  0  0  0  0  0  0  0  0  0
    2.7713   -1.6000    0.0000 H   0  0  0  0  0  0  0  0  0  0  0  0
    1.3856    2.4000    0.0000 O   0  0  0  0  0  0  0  0  0  0  0  0
    0.0001    0.0000    0.0000 C   0  0  0  0  0  0  0  0  0  0  0  0
    0.0001   -1.6000    0.0000 C   0  0  0  0  0  0  0  0  0  0  0  0
    1.3856   -2.4000    0.0000 H   0  0  0  0  0  0  0  0  0  0  0  0
   -1.3856   -2.4000    0.0000 N   0  0  0  0  0  0  0  0  0  0  0  0
   -2.7712   -1.6000    0.0000 C   0  0  0  0  0  0  0  0  0  0  0  0
   -4.1569   -2.4000    0.0000 H   0  0  0  0  0  0  0  0  0  0  0  0
   -2.7712    0.0000    0.0000 C   0  0  0  0  0  0  0  0  0  0  0  0
   -4.1569    0.8000    0.0000 H   0  0  0  0  0  0  0  0  0  0  0  0
   -1.3856    0.8000    0.0000 C   0  0  0  0  0  0  0  0  0  0  0  0
   -1.3856    2.4000    0.0000 H   0  0  0  0  0  0  0  0  0  0  0  0
  1  2  1  0  0  0  0
  2  3  1  0  0  0  0
  2  4  1  0  0  0  0
  2  5  1  0  0  0  0
  1  6  2  0  0  0  0
  1  7  1  0  0  0  0
  7  8  1  0  0  0  0
  8  9  1  0  0  0  0
  8 10  2  0  0  0  0
 10 11  1  0  0  0  0
 11 12  1  0  0  0  0
 11 13  2  0  0  0  0
 13 14  1  0  0  0  0
 13 15  1  0  0  0  0
 15  7  2  0  0  0  0
 15 16  1  0  0  0  0
M  END
> <ChemID>
101647

> <source_casrn>
350-03-8

> <CAS>
350-03-8

> <SMILES>
CC(=O)c1ccc[n]c1

> <NAME>
3-ACETYLPYRIDINE

> <preferred_name>
3-Acetylpyridine

> <iupac>
1-(pyridin-3-yl)ethanone

> <MPID>
20700

> <dsstox_substance_id>
DTXSID7044421

> <Canonical_QSARr>
CC(=O)c1ccc[n]c1

> <InChI_Code_QSARr>
InChI=1S/C7H7NO/c1-6(9)7-3-2-4-8-5-7/h2-5H,1H3

> <InChI Key_QSARr>
WEGYGNROSJDEIW-UHFFFAOYSA-N

> <Salt_Solvent>
?

> <BP>
220.0

$$$$
101651
  -INDIGO-08031720192D

 15 15  0  0  0  0  0  0  0  0999 V2000
    0.0000   -0.0000    0.0000 C   0  0  0  0  0  0  0  0  0  0  0  0
   -0.8001    1.3856    0.0000 C   0  0  0  0  0  0  0  0  0  0  0  0
    0.0000    2.7713    0.0000 H   0  0  0  0  0  0  0  0  0  0  0  0
   -2.4001    1.3856    0.0000 C   0  0  0  0  0  0  0  0  0  0  0  0
   -3.2000    2.7713    0.0000 H   0  0  0  0  0  0  0  0  0  0  0  0
   -3.2000   -0.0000    0.0000 C   0  0  0  0  0  0  0  0  0  0  0  0
   -4.8000   -0.0000    0.0000 F   0  0  0  0  0  0  0  0  0  0  0  0
   -2.4001   -1.3856    0.0000 C   0  0  0  0  0  0  0  0  0  0  0  0
   -3.2000   -2.7713    0.0000 H   0  0  0  0  0  0  0  0  0  0  0  0
   -0.8001   -1.3856    0.0000 C   0  0  0  0  0  0  0  0  0  0  0  0
    0.0000   -2.7713    0.0000 H   0  0  0  0  0  0  0  0  0  0  0  0
    1.6000   -0.0000    0.0000 C   0  0  0  0  0  0  0  0  0  0  0  0
    3.2000   -0.0000    0.0000 H   0  0  0  0  0  0  0  0  0  0  0  0
    2.4001   -1.3856    0.0000 H   0  0  0  0  0  0  0  0  0  0  0  0
    2.4001    1.3856    0.0000 H   0  0  0  0  0  0  0  0  0  0  0  0
  1  2  1  0  0  0  0
  2  3  1  0  0  0  0
  2  4  2  0  0  0  0
  4  5  1  0  0  0  0
  4  6  1  0  0  0  0
  6  7  1  0  0  0  0
  6  8  2  0  0  0  0
  8  9  1  0  0  0  0
  8 10  1  0  0  0  0
 10  1  2  0  0  0  0
 10 11  1  0  0  0  0
  1 12  1  0  0  0  0
 12 13  1  0  0  0  0
 12 14  1  0  0  0  0
 12 15  1  0  0  0  0
M  END
> <ChemID>
101651

> <source_casrn>
352-32-9

> <CAS>
352-32-9

> <SMILES>
Cc1ccc(F)cc1

> <NAME>
P-FLUOROTOLUENE

> <preferred_name>
p-Fluorotoluene

> <iupac>
1-Fluoro-4-methylbenzene

> <MPID>
20704

> <dsstox_substance_id>
DTXSID7059852

> <Canonical_QSARr>
Cc1ccc(F)cc1

> <InChI_Code_QSARr>
InChI=1S/C7H7F/c1-6-2-4-7(8)5-3-6/h2-5H,1H3

> <InChI Key_QSARr>
WRWPPGUCZBJXKX-UHFFFAOYSA-N

> <Salt_Solvent>
?

> <BP>
116.6

$$$$
101655
  -INDIGO-08031720192D

 15 15  0  0  0  0  0  0  0  0999 V2000
   -0.8001    1.3856    0.0000 C   0  0  0  0  0  0  0  0  0  0  0  0
    0.0000    2.7713    0.0000 H   0  0  0  0  0  0  0  0  0  0  0  0
    0.0000   -0.0000    0.0000 C   0  0  0  0  0  0  0  0  0  0  0  0
    1.6000   -0.0000    0.0000 C   0  0  0  0  0  0  0  0  0  0  0  0
    3.2000   -0.0000    0.0000 H   0  0  0  0  0  0  0  0  0  0  0  0
    2.4001   -1.3856    0.0000 H   0  0  0  0  0  0  0  0  0  0  0  0
    2.4001    1.3856    0.0000 H   0  0  0  0  0  0  0  0  0  0  0  0
   -0.7999   -1.3856    0.0000 C   0  0  0  0  0  0  0  0  0  0  0  0
    0.0000   -2.7713    0.0000 H   0  0  0  0  0  0  0  0  0  0  0  0
   -2.4001   -1.3856    0.0000 C   0  0  0  0  0  0  0  0  0  0  0  0
   -3.2000   -2.7713    0.0000 H   0  0  0  0  0  0  0  0  0  0  0  0
   -3.2000   -0.0000    0.0000 C   0  0  0  0  0  0  0  0  0  0  0  0
   -4.8000   -0.0000    0.0000 H   0  0  0  0  0  0  0  0  0  0  0  0
   -2.4001    1.3856    0.0000 C   0  0  0  0  0  0  0  0  0  0  0  0
   -3.2000    2.7713    0.0000 F   0  0  0  0  0  0  0  0  0  0  0  0
  1  2  1  0  0  0  0
  1  3  1  0  0  0  0
  3  4  1  0  0  0  0
  4  5  1  0  0  0  0
  4  6  1  0  0  0  0
  4  7  1  0  0  0  0
  3  8  2  0  0  0  0
  8  9  1  0  0  0  0
  8 10  1  0  0  0  0
 10 11  1  0  0  0  0
 10 12  2  0  0  0  0
 12 13  1  0  0  0  0
 12 14  1  0  0  0  0
 14  1  2  0  0  0  0
 14 15  1  0  0  0  0
M  END
> <ChemID>
101655

> <source_casrn>
352-70-5

> <CAS>
352-70-5

> <SMILES>
Cc1cc(F)ccc1

> <NAME>
M-FLUOROTOLUENE

> <preferred_name>
m-Fluorotoluene

> <iupac>
1-Fluoro-3-methylbenzene

> <MPID>
20708

> <dsstox_substance_id>
DTXSID2059855

> <Canonical_QSARr>
Cc1cc(F)ccc1

> <InChI_Code_QSARr>
InChI=1S/C7H7F/c1-6-3-2-4-7(8)5-6/h2-5H,1H3

> <InChI Key_QSARr>
BTQZKHUEUDPRST-UHFFFAOYSA-N

> <Salt_Solvent>
?

> <BP>
115.0

$$$$
101659
  -INDIGO-08031720192D

  4  3  0  0  0  0  0  0  0  0999 V2000
    0.0000    0.0000    0.0000 C   0  0  0  0  0  0  0  0  0  0  0  0
    1.3856    0.8000    0.0000 O   0  0  0  0  0  0  0  0  0  0  0  0
   -1.3856    0.8000    0.0000 F   0  0  0  0  0  0  0  0  0  0  0  0
    0.0000   -1.6000    0.0000 F   0  0  0  0  0  0  0  0  0  0  0  0
  1  2  2  0  0  0  0
  1  3  1  0  0  0  0
  1  4  1  0  0  0  0
M  END
> <ChemID>
101659

> <source_casrn>
353-50-4

> <CAS>
353-50-4

> <SMILES>
O=C(F)F

> <NAME>
CARBONIC DIFLUORIDE

> <preferred_name>
Carbonic difluoride

> <iupac>
CARBONYL DIFLUORIDE

> <MPID>
20712

> <dsstox_substance_id>
DTXSID7059858

> <Canonical_QSARr>
O=C(F)F

> <InChI_Code_QSARr>
InChI=1S/CF2O/c2-1(3)4

> <InChI Key_QSARr>
IYRWEQXVUNLMAY-UHFFFAOYSA-N

> <Salt_Solvent>
?

> <BP>
-84.5

$$$$
101663
  -INDIGO-08031720192D

  5  4  0  0  0  0  0  0  0  0999 V2000
    0.0000    0.0000    0.0000 C   0  0  0  0  0  0  0  0  0  0  0  0
    0.8000    1.3856    0.0000 Br  0  0  0  0  0  0  0  0  0  0  0  0
   -1.3856    0.8000    0.0000 Cl  0  0  0  0  0  0  0  0  0  0  0  0
    1.3856   -0.8000    0.0000 F   0  0  0  0  0  0  0  0  0  0  0  0
   -0.8000   -1.3856    0.0000 F   0  0  0  0  0  0  0  0  0  0  0  0
  1  2  1  0  0  0  0
  1  3  1  0  0  0  0
  1  4  1  0  0  0  0
  1  5  1  0  0  0  0
M  END
> <ChemID>
101663

> <source_casrn>
353-59-3

> <CAS>
353-59-3

> <SMILES>
FC(F)(Cl)Br

> <NAME>
BROMOCHLORODIFLUOROMETHANE

> <preferred_name>
Methane, bromochlorodifluoro-

> <iupac>
bromo(chloro)difluoromethane

> <MPID>
20716

> <dsstox_substance_id>
DTXSID0027147

> <Canonical_QSARr>
FC(F)(Cl)Br

> <InChI_Code_QSARr>
InChI=1S/CBrClF2/c2-1(3,4)5

> <InChI Key_QSARr>
MEXUFEQDCXZEON-UHFFFAOYSA-N

> <Salt_Solvent>
?

> <BP>
-3.7

$$$$
101667
  -INDIGO-08031720192D

  8  7  0  0  0  0  0  0  0  0999 V2000
    0.0000    0.0000    0.0000 C   0  0  0  0  0  0  0  0  0  0  0  0
    1.6000    0.0000    0.0000 C   0  0  0  0  0  0  0  0  0  0  0  0
    3.2000    0.0000    0.0000 H   0  0  0  0  0  0  0  0  0  0  0  0
    2.4000   -1.3856    0.0000 Br  0  0  0  0  0  0  0  0  0  0  0  0
    2.4000    1.3856    0.0000 F   0  0  0  0  0  0  0  0  0  0  0  0
   -1.6000   -0.0000    0.0000 Br  0  0  0  0  0  0  0  0  0  0  0  0
   -0.8000   -1.3856    0.0000 F   0  0  0  0  0  0  0  0  0  0  0  0
   -0.8000    1.3856    0.0000 F   0  0  0  0  0  0  0  0  0  0  0  0
  1  2  1  0  0  0  0
  2  3  1  0  0  0  0
  2  4  1  0  0  0  0
  2  5  1  0  0  0  0
  1  6  1  0  0  0  0
  1  7  1  0  0  0  0
  1  8  1  0  0  0  0
M  END
> <ChemID>
101667

> <source_casrn>
354-04-1

> <CAS>
NOCAS_861886

> <SMILES>
FC(Br)C(F)(F)Br

> <NAME>
Ethane, 1,2-dibromo-1,1,2-trifluoro-

> <preferred_name>


> <iupac>


> <MPID>
20720

> <dsstox_substance_id>
DTXSID10861886

> <Canonical_QSARr>
FC(Br)C(F)(F)Br

> <InChI_Code_QSARr>
InChI=1S/C2HBr2F3/c3-1(5)2(4,6)7/h1H

> <InChI Key_QSARr>
UREJNEBJDURREH-UHFFFAOYSA-N

> <Salt_Solvent>
?

> <BP>
76.0

$$$$
101671
  -INDIGO-08031720192D

  8  7  0  0  0  0  0  0  0  0999 V2000
    0.0000    0.0000    0.0000 C   0  0  0  0  0  0  0  0  0  0  0  0
    1.6000    0.0000    0.0000 C   0  0  0  0  0  0  0  0  0  0  0  0
    3.2000    0.0000    0.0000 H   0  0  0  0  0  0  0  0  0  0  0  0
    2.4000   -1.3856    0.0000 Cl  0  0  0  0  0  0  0  0  0  0  0  0
    2.4000    1.3856    0.0000 Cl  0  0  0  0  0  0  0  0  0  0  0  0
   -1.6000   -0.0000    0.0000 F   0  0  0  0  0  0  0  0  0  0  0  0
   -0.8000   -1.3856    0.0000 Cl  0  0  0  0  0  0  0  0  0  0  0  0
   -0.8000    1.3856    0.0000 Cl  0  0  0  0  0  0  0  0  0  0  0  0
  1  2  1  0  0  0  0
  2  3  1  0  0  0  0
  2  4  1  0  0  0  0
  2  5  1  0  0  0  0
  1  6  1  0  0  0  0
  1  7  1  0  0  0  0
  1  8  1  0  0  0  0
M  END
> <ChemID>
101671

> <source_casrn>
354-14-3

> <CAS>
354-14-3

> <SMILES>
FC(Cl)(Cl)C(Cl)Cl

> <NAME>
Ethane, 1,1,2,2-tetrachloro-1-fluoro-

> <preferred_name>
HCFC-121

> <iupac>
1,1,2,2-Tetrachloro-1-fluoroethane

> <MPID>
20724

> <dsstox_substance_id>
DTXSID6059863

> <Canonical_QSARr>
FC(Cl)(Cl)C(Cl)Cl

> <InChI_Code_QSARr>
InChI=1S/C2HCl4F/c3-1(4)2(5,6)7/h1H

> <InChI Key_QSARr>
LUBCGHUOCJOIJA-UHFFFAOYSA-N

> <Salt_Solvent>
?

> <BP>
116.0

$$$$
101676
  -INDIGO-08031720192D

  7  6  0  0  0  0  0  0  0  0999 V2000
    2.4000   -1.3856    0.0000 Cl  0  0  0  0  0  0  0  0  0  0  0  0
    1.6000    0.0000    0.0000 C   0  0  0  0  0  0  0  0  0  0  0  0
    2.4000    1.3856    0.0000 O   0  0  0  0  0  0  0  0  0  0  0  0
    0.0000    0.0000    0.0000 C   0  0  0  0  0  0  0  0  0  0  0  0
   -1.6000    0.0000    0.0000 F   0  0  0  0  0  0  0  0  0  0  0  0
   -0.8000    1.3856    0.0000 F   0  0  0  0  0  0  0  0  0  0  0  0
   -0.8000   -1.3856    0.0000 F   0  0  0  0  0  0  0  0  0  0  0  0
  1  2  1  0  0  0  0
  2  3  2  0  0  0  0
  2  4  1  0  0  0  0
  4  5  1  0  0  0  0
  4  6  1  0  0  0  0
  4  7  1  0  0  0  0
M  END
> <ChemID>
101676

> <source_casrn>
354-32-5

> <CAS>
354-32-5

> <SMILES>
O=C(Cl)C(F)(F)F

> <NAME>
Trifluoroacetyl chloride

> <preferred_name>
Trifluoroacetyl chloride

> <iupac>
trifluoroacetyl chloride

> <MPID>
20728

> <dsstox_substance_id>
DTXSID1029176

> <Canonical_QSARr>
O=C(Cl)C(F)(F)F

> <InChI_Code_QSARr>
InChI=1S/C2ClF3O/c3-1(7)2(4,5)6

> <InChI Key_QSARr>
PNQBEPDZQUOCNY-UHFFFAOYSA-N

> <Salt_Solvent>
?

> <BP>
-27.0

$$$$
101680
  -INDIGO-08031720192D

  8  7  0  0  0  0  0  0  0  0999 V2000
    0.0000    0.0000    0.0000 C   0  0  0  0  0  0  0  0  0  0  0  0
    1.6000    0.0000    0.0000 C   0  0  0  0  0  0  0  0  0  0  0  0
    3.2000    0.0000    0.0000 Br  0  0  0  0  0  0  0  0  0  0  0  0
    2.4000   -1.3856    0.0000 F   0  0  0  0  0  0  0  0  0  0  0  0
    2.4000    1.3856    0.0000 F   0  0  0  0  0  0  0  0  0  0  0  0
   -1.6000   -0.0000    0.0000 Br  0  0  0  0  0  0  0  0  0  0  0  0
   -0.8000   -1.3856    0.0000 Cl  0  0  0  0  0  0  0  0  0  0  0  0
   -0.8000    1.3856    0.0000 F   0  0  0  0  0  0  0  0  0  0  0  0
  1  2  1  0  0  0  0
  2  3  1  0  0  0  0
  2  4  1  0  0  0  0
  2  5  1  0  0  0  0
  1  6  1  0  0  0  0
  1  7  1  0  0  0  0
  1  8  1  0  0  0  0
M  END
> <ChemID>
101680

> <source_casrn>
354-51-8

> <CAS>
NOCAS_861891

> <SMILES>
FC(F)(Br)C(F)(Cl)Br

> <NAME>
1,2-dibromo-1-chloro-1,2,2-trifluoroethane

> <preferred_name>


> <iupac>


> <MPID>
20732

> <dsstox_substance_id>
DTXSID60861891

> <Canonical_QSARr>
FC(F)(Br)C(F)(Cl)Br

> <InChI_Code_QSARr>
InChI=1S/C2Br2ClF3/c3-1(5,6)2(4,7)8

> <InChI Key_QSARr>
OVZATIUQXBLIQT-UHFFFAOYSA-N

> <Salt_Solvent>
?

> <BP>
93.0

$$$$
101685
  -INDIGO-08031720192D

  8  7  0  0  0  0  0  0  0  0999 V2000
    0.0000    0.0000    0.0000 C   0  0  0  0  0  0  0  0  0  0  0  0
    1.6000    0.0000    0.0000 C   0  0  0  0  0  0  0  0  0  0  0  0
    3.2000    0.0000    0.0000 F   0  0  0  0  0  0  0  0  0  0  0  0
    2.4000   -1.3856    0.0000 F   0  0  0  0  0  0  0  0  0  0  0  0
    2.4000    1.3856    0.0000 I   0  0  0  0  0  0  0  0  0  0  0  0
   -1.6000   -0.0000    0.0000 F   0  0  0  0  0  0  0  0  0  0  0  0
   -0.8000   -1.3856    0.0000 F   0  0  0  0  0  0  0  0  0  0  0  0
   -0.8000    1.3856    0.0000 F   0  0  0  0  0  0  0  0  0  0  0  0
  1  2  1  0  0  0  0
  2  3  1  0  0  0  0
  2  4  1  0  0  0  0
  2  5  1  0  0  0  0
  1  6  1  0  0  0  0
  1  7  1  0  0  0  0
  1  8  1  0  0  0  0
M  END
> <ChemID>
101685

> <source_casrn>
354-64-3

> <CAS>
354-64-3

> <SMILES>
FC(F)(F)C(F)(F)I

> <NAME>
Ethane, pentafluoroiodo-

> <preferred_name>
Pentafluoroiodoethane

> <iupac>
1,1,1,2,2-pentafluoro-2-iodoethane

> <MPID>
20736

> <dsstox_substance_id>
DTXSID8040149

> <Canonical_QSARr>
FC(F)(F)C(F)(F)I

> <InChI_Code_QSARr>
InChI=1S/C2F5I/c3-1(4,5)2(6,7)8

> <InChI Key_QSARr>
UXPOJVLZTPGWFX-UHFFFAOYSA-N

> <Salt_Solvent>
?

> <BP>
13.0

$$$$
101690
  -INDIGO-08031720192D

 20 19  0  0  0  0  0  0  0  0999 V2000
    0.8000   -1.3856    0.0000 F   0  0  0  0  0  0  0  0  0  0  0  0
    0.0000    0.0000    0.0000 C   0  0  0  0  0  0  0  0  0  0  0  0
    1.5036    0.5472    0.0000 C   0  0  0  0  0  0  0  0  0  0  0  0
    1.1572    2.1093    0.0000 F   0  0  0  0  0  0  0  0  0  0  0  0
    2.3632    1.8967    0.0000 F   0  0  0  0  0  0  0  0  0  0  0  0
    2.7291   -0.4813    0.0000 C   0  0  0  0  0  0  0  0  0  0  0  0
    3.0755   -2.0433    0.0000 F   0  0  0  0  0  0  0  0  0  0  0  0
    1.8695   -1.8307    0.0000 F   0  0  0  0  0  0  0  0  0  0  0  0
    4.2327    0.0660    0.0000 C   0  0  0  0  0  0  0  0  0  0  0  0
    5.7362    0.6132    0.0000 F   0  0  0  0  0  0  0  0  0  0  0  0
    5.4584   -0.9624    0.0000 F   0  0  0  0  0  0  0  0  0  0  0  0
    4.5105    1.6417    0.0000 F   0  0  0  0  0  0  0  0  0  0  0  0
   -1.3856   -0.8000    0.0000 C   0  0  0  0  0  0  0  0  0  0  0  0
   -2.7713   -1.6000    0.0000 F   0  0  0  0  0  0  0  0  0  0  0  0
   -1.3856   -2.4000    0.0000 F   0  0  0  0  0  0  0  0  0  0  0  0
   -2.7713    0.0000    0.0000 F   0  0  0  0  0  0  0  0  0  0  0  0
   -0.8000    1.3856    0.0000 C   0  0  0  0  0  0  0  0  0  0  0  0
   -1.6000    2.7713    0.0000 F   0  0  0  0  0  0  0  0  0  0  0  0
    0.0000    2.7713    0.0000 F   0  0  0  0  0  0  0  0  0  0  0  0
   -2.4000    1.3856    0.0000 F   0  0  0  0  0  0  0  0  0  0  0  0
  1  2  1  0  0  0  0
  2  3  1  0  0  0  0
  3  4  1  0  0  0  0
  3  5  1  0  0  0  0
  3  6  1  0  0  0  0
  6  7  1  0  0  0  0
  6  8  1  0  0  0  0
  6  9  1  0  0  0  0
  9 10  1  0  0  0  0
  9 11  1  0  0  0  0
  9 12  1  0  0  0  0
  2 13  1  0  0  0  0
 13 14  1  0  0  0  0
 13 15  1  0  0  0  0
 13 16  1  0  0  0  0
  2 17  1  0  0  0  0
 17 18  1  0  0  0  0
 17 19  1  0  0  0  0
 17 20  1  0  0  0  0
M  END
> <ChemID>
101690

> <source_casrn>
355-04-4

> <CAS>
355-04-4

> <SMILES>
FC(C(F)(F)C(F)(F)C(F)(F)F)(C(F)(F)F)C(F)(F)F

> <NAME>
Undecafluoro-4-trifluoromethyl-pentane

> <preferred_name>
Perfluoroisohexane

> <iupac>
1,1,1,2,2,3,3,4,5,5,5-Undecafluoro-4-(trifluoromethyl)pentane

> <MPID>
20740

> <dsstox_substance_id>
DTXSID40188992

> <Canonical_QSARr>
FC(C(F)(F)C(F)(F)C(F)(F)F)(C(F)(F)F)C(F)(F)F

> <InChI_Code_QSARr>
InChI=1S/C6F14/c7-1(4(12,13)14,5(15,16)17)2(8,9)3(10,11)6(18,19)20

> <InChI Key_QSARr>
ROVMKEZVKFJNBD-UHFFFAOYSA-N

> <Salt_Solvent>
?

> <BP>
57.6

$$$$
101694
  -INDIGO-08031720192D

 20 19  0  0  0  0  0  0  0  0999 V2000
   -2.7713    1.6000    0.0000 I   0  0  0  0  0  0  0  0  0  0  0  0
   -2.7713    0.0000    0.0000 C   0  0  0  0  0  0  0  0  0  0  0  0
   -1.3857   -0.8000    0.0000 C   0  0  0  0  0  0  0  0  0  0  0  0
   -0.0001    0.0000    0.0000 C   0  0  0  0  0  0  0  0  0  0  0  0
    1.3857   -0.8000    0.0000 C   0  0  0  0  0  0  0  0  0  0  0  0
    2.7713    0.0000    0.0000 C   0  0  0  0  0  0  0  0  0  0  0  0
    4.1569   -0.8000    0.0000 C   0  0  0  0  0  0  0  0  0  0  0  0
    5.5426   -1.6000    0.0000 F   0  0  0  0  0  0  0  0  0  0  0  0
    5.5426    0.0000    0.0000 F   0  0  0  0  0  0  0  0  0  0  0  0
    4.1569   -2.4000    0.0000 F   0  0  0  0  0  0  0  0  0  0  0  0
    2.1590    1.4782    0.0000 F   0  0  0  0  0  0  0  0  0  0  0  0
    3.3836    1.4782    0.0000 F   0  0  0  0  0  0  0  0  0  0  0  0
    1.9980   -2.2782    0.0000 F   0  0  0  0  0  0  0  0  0  0  0  0
    0.7734   -2.2782    0.0000 F   0  0  0  0  0  0  0  0  0  0  0  0
   -0.6124    1.4782    0.0000 F   0  0  0  0  0  0  0  0  0  0  0  0
    0.6122    1.4782    0.0000 F   0  0  0  0  0  0  0  0  0  0  0  0
   -0.7734   -2.2782    0.0000 F   0  0  0  0  0  0  0  0  0  0  0  0
   -1.9980   -2.2782    0.0000 F   0  0  0  0  0  0  0  0  0  0  0  0
   -4.1569    0.8000    0.0000 F   0  0  0  0  0  0  0  0  0  0  0  0
   -4.1569   -0.8000    0.0000 F   0  0  0  0  0  0  0  0  0  0  0  0
  1  2  1  0  0  0  0
  2  3  1  0  0  0  0
  3  4  1  0  0  0  0
  4  5  1  0  0  0  0
  5  6  1  0  0  0  0
  6  7  1  0  0  0  0
  7  8  1  0  0  0  0
  7  9  1  0  0  0  0
  7 10  1  0  0  0  0
  6 11  1  0  0  0  0
  6 12  1  0  0  0  0
  5 13  1  0  0  0  0
  5 14  1  0  0  0  0
  4 15  1  0  0  0  0
  4 16  1  0  0  0  0
  3 17  1  0  0  0  0
  3 18  1  0  0  0  0
  2 19  1  0  0  0  0
  2 20  1  0  0  0  0
M  END
> <ChemID>
101694

> <source_casrn>
355-43-1

> <CAS>
355-43-1

> <SMILES>
FC(F)(F)C(F)(F)C(F)(F)C(F)(F)C(F)(F)C(F)(F)I

> <NAME>
Hexane, tridecafluoro-6-iodo-

> <preferred_name>
Perfluorohexyl iodide

> <iupac>
1,1,1,2,2,3,3,4,4,5,5,6,6-tridecafluoro-6-iodohexane

> <MPID>
20744

> <dsstox_substance_id>
DTXSID7047566

> <Canonical_QSARr>
FC(F)(F)C(F)(F)C(F)(F)C(F)(F)C(F)(F)C(F)(F)I

> <InChI_Code_QSARr>
InChI=1S/C6F13I/c7-1(8,3(11,12)5(15,16)17)2(9,10)4(13,14)6(18,19)20

> <InChI Key_QSARr>
BULLJMKUVKYZDJ-UHFFFAOYSA-N

> <Salt_Solvent>
?

> <BP>
118.0

$$$$
101698
  -INDIGO-08031720192D

 16 16  0  0  0  0  0  0  0  0999 V2000
   -0.0000    0.0000    0.0000 C   0  0  0  0  0  0  0  0  0  0  0  0
    1.6000    0.0000    0.0000 C   0  0  0  0  0  0  0  0  0  0  0  0
    1.3222    1.5757    0.0000 F   0  0  0  0  0  0  0  0  0  0  0  0
    3.1035    0.5473    0.0000 F   0  0  0  0  0  0  0  0  0  0  0  0
    2.4000   -1.3857    0.0000 C   0  0  0  0  0  0  0  0  0  0  0  0
    3.6257   -0.3572    0.0000 F   0  0  0  0  0  0  0  0  0  0  0  0
    3.6257   -2.4141    0.0000 F   0  0  0  0  0  0  0  0  0  0  0  0
    1.6000   -2.7712    0.0000 C   0  0  0  0  0  0  0  0  0  0  0  0
    2.4000   -4.1569    0.0000 F   0  0  0  0  0  0  0  0  0  0  0  0
   -0.0000   -2.7712    0.0000 C   0  0  0  0  0  0  0  0  0  0  0  0
   -0.8000   -4.1569    0.0000 F   0  0  0  0  0  0  0  0  0  0  0  0
   -0.8000   -1.3857    0.0000 C   0  0  0  0  0  0  0  0  0  0  0  0
   -2.0257   -2.4141    0.0000 F   0  0  0  0  0  0  0  0  0  0  0  0
   -2.0257   -0.3572    0.0000 F   0  0  0  0  0  0  0  0  0  0  0  0
   -1.5035    0.5473    0.0000 F   0  0  0  0  0  0  0  0  0  0  0  0
    0.2778    1.5757    0.0000 F   0  0  0  0  0  0  0  0  0  0  0  0
  1  2  1  0  0  0  0
  2  3  1  0  0  0  0
  2  4  1  0  0  0  0
  2  5  1  0  0  0  0
  5  6  1  0  0  0  0
  5  7  1  0  0  0  0
  5  8  1  0  0  0  0
  8  9  1  0  0  0  0
  8 10  2  0  0  0  0
 10 11  1  0  0  0  0
 10 12  1  0  0  0  0
 12  1  1  0  0  0  0
 12 13  1  0  0  0  0
 12 14  1  0  0  0  0
  1 15  1  0  0  0  0
  1 16  1  0  0  0  0
M  END
> <ChemID>
101698

> <source_casrn>
355-75-9

> <CAS>
355-75-9

> <SMILES>
FC1(F)C(F)=C(F)C(F)(F)C(F)(F)C1(F)F

> <NAME>
Decafluorocyclohexene

> <preferred_name>
Cyclohexene, 1,2,3,3,4,4,5,5,6,6-decafluoro-

> <iupac>
1,2,3,3,4,4,5,5,6,6-decafluorocyclohexene

> <MPID>
20748

> <dsstox_substance_id>
DTXSID8074659

> <Canonical_QSARr>
FC1(F)C(F)=C(F)C(F)(F)C(F)(F)C1(F)F

> <InChI_Code_QSARr>
InChI=1S/C6F10/c7-1-2(8)4(11,12)6(15,16)5(13,14)3(1,9)10

> <InChI Key_QSARr>
ZFFLXJVVPHACEG-UHFFFAOYSA-N

> <Salt_Solvent>
?

> <BP>
52.0

$$$$
101702
  -INDIGO-08031720192D

 17 16  0  0  0  0  0  0  0  0999 V2000
    2.7713   -1.6000    0.0000 O   0  0  0  0  0  0  0  0  0  0  0  0
    2.7713    0.0000    0.0000 C   0  0  0  0  0  0  0  0  0  0  0  0
    4.1570    0.8000    0.0000 O   0  0  0  0  0  0  0  0  0  0  0  0
    5.5426    0.0000    0.0000 C   0  0  0  0  0  0  0  0  0  0  0  0
    6.9282   -0.8000    0.0000 H   0  0  0  0  0  0  0  0  0  0  0  0
    6.9282    0.8000    0.0000 H   0  0  0  0  0  0  0  0  0  0  0  0
    5.5426   -1.6000    0.0000 H   0  0  0  0  0  0  0  0  0  0  0  0
    1.3856    0.8000    0.0000 C   0  0  0  0  0  0  0  0  0  0  0  0
    0.7733    2.2782    0.0000 F   0  0  0  0  0  0  0  0  0  0  0  0
    1.9979    2.2782    0.0000 F   0  0  0  0  0  0  0  0  0  0  0  0
   -0.0000    0.0000    0.0000 C   0  0  0  0  0  0  0  0  0  0  0  0
    0.6123   -1.4782    0.0000 F   0  0  0  0  0  0  0  0  0  0  0  0
   -0.6123   -1.4782    0.0000 F   0  0  0  0  0  0  0  0  0  0  0  0
   -1.3857    0.8000    0.0000 C   0  0  0  0  0  0  0  0  0  0  0  0
   -2.7713    1.6000    0.0000 F   0  0  0  0  0  0  0  0  0  0  0  0
   -2.7713    0.0000    0.0000 F   0  0  0  0  0  0  0  0  0  0  0  0
   -1.3857    2.4000    0.0000 F   0  0  0  0  0  0  0  0  0  0  0  0
  1  2  2  0  0  0  0
  2  3  1  0  0  0  0
  3  4  1  0  0  0  0
  4  5  1  0  0  0  0
  4  6  1  0  0  0  0
  4  7  1  0  0  0  0
  2  8  1  0  0  0  0
  8  9  1  0  0  0  0
  8 10  1  0  0  0  0
  8 11  1  0  0  0  0
 11 12  1  0  0  0  0
 11 13  1  0  0  0  0
 11 14  1  0  0  0  0
 14 15  1  0  0  0  0
 14 16  1  0  0  0  0
 14 17  1  0  0  0  0
M  END
> <ChemID>
101702

> <source_casrn>
356-24-1

> <CAS>
356-24-1

> <SMILES>
COC(=O)C(F)(F)C(F)(F)C(F)(F)F

> <NAME>
Butanoic acid, heptafluoro-, methyl ester

> <preferred_name>
Methyl heptafluorobutyrate

> <iupac>
methyl 2,2,3,3,4,4,4-heptafluorobutanoate

> <MPID>
20752

> <dsstox_substance_id>
DTXSID4059881

> <Canonical_QSARr>
COC(=O)C(F)(F)C(F)(F)C(F)(F)F

> <InChI_Code_QSARr>
InChI=1S/C5H3F7O2/c1-14-2(13)3(6,7)4(8,9)5(10,11)12/h1H3

> <InChI Key_QSARr>
MRPUVAKBXDBGJQ-UHFFFAOYSA-N

> <Salt_Solvent>
?

> <BP>
80.0

$$$$
101707
  -INDIGO-08031720192D

 23 22  0  0  0  0  0  0  0  0999 V2000
   -0.0000   -0.0000    0.0000 Si  0  0  0  0  0  0  0  0  0  0  0  0
    0.8001   -1.3856    0.0000 F   0  0  0  0  0  0  0  0  0  0  0  0
   -1.3857   -0.8000    0.0000 C   0  0  0  0  0  0  0  0  0  0  0  0
   -1.9979   -2.2782    0.0000 H   0  0  0  0  0  0  0  0  0  0  0  0
   -0.7734   -2.2782    0.0000 H   0  0  0  0  0  0  0  0  0  0  0  0
   -2.8891   -0.2528    0.0000 C   0  0  0  0  0  0  0  0  0  0  0  0
   -4.1148   -1.2812    0.0000 H   0  0  0  0  0  0  0  0  0  0  0  0
   -4.3927    0.2945    0.0000 H   0  0  0  0  0  0  0  0  0  0  0  0
   -3.1669    1.3230    0.0000 H   0  0  0  0  0  0  0  0  0  0  0  0
   -0.8000    1.3856    0.0000 C   0  0  0  0  0  0  0  0  0  0  0  0
   -2.2781    0.7734    0.0000 H   0  0  0  0  0  0  0  0  0  0  0  0
   -2.2781    1.9979    0.0000 H   0  0  0  0  0  0  0  0  0  0  0  0
   -0.0000    2.7713    0.0000 C   0  0  0  0  0  0  0  0  0  0  0  0
   -0.8000    4.1569    0.0000 H   0  0  0  0  0  0  0  0  0  0  0  0
    0.8001    4.1569    0.0000 H   0  0  0  0  0  0  0  0  0  0  0  0
   -1.6001    2.7713    0.0000 H   0  0  0  0  0  0  0  0  0  0  0  0
    1.5035    0.5472    0.0000 C   0  0  0  0  0  0  0  0  0  0  0  0
    1.1573    2.1093    0.0000 H   0  0  0  0  0  0  0  0  0  0  0  0
    2.3632    1.8967    0.0000 H   0  0  0  0  0  0  0  0  0  0  0  0
    2.7291   -0.4813    0.0000 C   0  0  0  0  0  0  0  0  0  0  0  0
    3.9548   -1.5096    0.0000 H   0  0  0  0  0  0  0  0  0  0  0  0
    4.2327    0.0660    0.0000 H   0  0  0  0  0  0  0  0  0  0  0  0
    2.4513   -2.0569    0.0000 H   0  0  0  0  0  0  0  0  0  0  0  0
  1  2  1  0  0  0  0
  1  3  1  0  0  0  0
  3  4  1  0  0  0  0
  3  5  1  0  0  0  0
  3  6  1  0  0  0  0
  6  7  1  0  0  0  0
  6  8  1  0  0  0  0
  6  9  1  0  0  0  0
  1 10  1  0  0  0  0
 10 11  1  0  0  0  0
 10 12  1  0  0  0  0
 10 13  1  0  0  0  0
 13 14  1  0  0  0  0
 13 15  1  0  0  0  0
 13 16  1  0  0  0  0
  1 17  1  0  0  0  0
 17 18  1  0  0  0  0
 17 19  1  0  0  0  0
 17 20  1  0  0  0  0
 20 21  1  0  0  0  0
 20 22  1  0  0  0  0
 20 23  1  0  0  0  0
M  END
> <ChemID>
101707

> <source_casrn>
358-43-0

> <CAS>
358-43-0

> <SMILES>
CC[Si](F)(CC)CC

> <NAME>
TRIETHYLFLUOROSILANE

> <preferred_name>
Triethylfluorosilane

> <iupac>
triethyl-fluorosilane

> <MPID>
20756

> <dsstox_substance_id>
DTXSID40189328

> <Canonical_QSARr>
CC[Si](F)(CC)CC

> <InChI_Code_QSARr>
InChI=1S/C6H15FSi/c1-4-8(7,5-2)6-3/h4-6H2,1-3H3

> <InChI Key_QSARr>
QVMRVWAOMIXFFW-UHFFFAOYSA-N

> <Salt_Solvent>
?

> <BP>
110.0

$$$$
101711
  -INDIGO-08031720192D

  6  5  0  0  0  0  0  0  0  0999 V2000
    0.0000    0.0000    0.0000 C   0  0  0  0  0  0  0  0  0  0  0  0
    1.6000    0.0000    0.0000 C   0  0  0  0  0  0  0  0  0  0  0  0
    2.4000    1.3856    0.0000 H   0  0  0  0  0  0  0  0  0  0  0  0
    2.4000   -1.3856    0.0000 F   0  0  0  0  0  0  0  0  0  0  0  0
   -0.8000    1.3856    0.0000 F   0  0  0  0  0  0  0  0  0  0  0  0
   -0.8000   -1.3856    0.0000 F   0  0  0  0  0  0  0  0  0  0  0  0
  1  2  2  0  0  0  0
  2  3  1  0  0  0  0
  2  4  1  0  0  0  0
  1  5  1  0  0  0  0
  1  6  1  0  0  0  0
M  END
> <ChemID>
101711

> <source_casrn>
359-11-5

> <CAS>
359-11-5

> <SMILES>
FC=C(F)F

> <NAME>
TRIFLUOROETHENE

> <preferred_name>
Ethene, trifluoro-

> <iupac>
1,1,2-trifluoroethene

> <MPID>
20760

> <dsstox_substance_id>
DTXSID4059887

> <Canonical_QSARr>
FC=C(F)F

> <InChI_Code_QSARr>
InChI=1S/C2HF3/c3-1-2(4)5/h1H

> <InChI Key_QSARr>
MIZLGWKEZAPEFJ-UHFFFAOYSA-N

> <Salt_Solvent>
?

> <BP>
-51.0

$$$$
101715
  -INDIGO-08031720192D

  8  7  0  0  0  0  0  0  0  0999 V2000
    0.0000    0.0000    0.0000 C   0  0  0  0  0  0  0  0  0  0  0  0
    1.6000   -0.0000    0.0000 H   0  0  0  0  0  0  0  0  0  0  0  0
   -1.6000    0.0000    0.0000 C   0  0  0  0  0  0  0  0  0  0  0  0
   -3.2000    0.0000    0.0000 H   0  0  0  0  0  0  0  0  0  0  0  0
   -2.4000   -1.3856    0.0000 F   0  0  0  0  0  0  0  0  0  0  0  0
   -2.4000    1.3856    0.0000 F   0  0  0  0  0  0  0  0  0  0  0  0
    0.8000   -1.3856    0.0000 F   0  0  0  0  0  0  0  0  0  0  0  0
    0.8000    1.3856    0.0000 F   0  0  0  0  0  0  0  0  0  0  0  0
  1  2  1  0  0  0  0
  1  3  1  0  0  0  0
  3  4  1  0  0  0  0
  3  5  1  0  0  0  0
  3  6  1  0  0  0  0
  1  7  1  0  0  0  0
  1  8  1  0  0  0  0
M  END
> <ChemID>
101715

> <source_casrn>
359-35-3

> <CAS>
9002-84-0

> <SMILES>
FC(F)C(F)F

> <NAME>
1,1,2,2-Tetrafluoroethane

> <preferred_name>
Poly(tetrafluoroethylene)

> <iupac>
1,1,2,2-tetrafluoroethane

> <MPID>
20764

> <dsstox_substance_id>
DTXSID7047724

> <Canonical_QSARr>
FC(F)C(F)F

> <InChI_Code_QSARr>
InChI=1S/C2H2F4/c3-1(4)2(5)6/h1-2H

> <InChI Key_QSARr>
WXGNWUVNYMJENI-UHFFFAOYSA-N

> <Salt_Solvent>
?

> <BP>
-19.9

$$$$
101719
  -INDIGO-08031720192D

 12 12  0  0  0  0  0  0  0  0999 V2000
   -0.0000   -0.0000    0.0000 C   0  0  0  0  0  0  0  0  0  0  0  0
    0.8000   -1.3857    0.0000 C   0  0  0  0  0  0  0  0  0  0  0  0
    2.4000   -1.3857    0.0000 F   0  0  0  0  0  0  0  0  0  0  0  0
   -0.0000   -2.7713    0.0000 C   0  0  0  0  0  0  0  0  0  0  0  0
    0.8000   -4.1569    0.0000 F   0  0  0  0  0  0  0  0  0  0  0  0
   -1.6000   -2.7713    0.0000 C   0  0  0  0  0  0  0  0  0  0  0  0
   -2.4000   -4.1569    0.0000 H   0  0  0  0  0  0  0  0  0  0  0  0
   -2.4000   -1.3856    0.0000 C   0  0  0  0  0  0  0  0  0  0  0  0
   -4.0000   -1.3856    0.0000 F   0  0  0  0  0  0  0  0  0  0  0  0
   -1.6000   -0.0000    0.0000 C   0  0  0  0  0  0  0  0  0  0  0  0
   -2.4000    1.3856    0.0000 F   0  0  0  0  0  0  0  0  0  0  0  0
    0.8000    1.3856    0.0000 F   0  0  0  0  0  0  0  0  0  0  0  0
  1  2  1  0  0  0  0
  2  3  1  0  0  0  0
  2  4  2  0  0  0  0
  4  5  1  0  0  0  0
  4  6  1  0  0  0  0
  6  7  1  0  0  0  0
  6  8  2  0  0  0  0
  8  9  1  0  0  0  0
  8 10  1  0  0  0  0
 10  1  2  0  0  0  0
 10 11  1  0  0  0  0
  1 12  1  0  0  0  0
M  END
> <ChemID>
101719

> <source_casrn>
363-72-4

> <CAS>
363-72-4

> <SMILES>
Fc1c(F)c(F)cc(F)c1F

> <NAME>
PENTAFLUOROBENZENE

> <preferred_name>
Pentafluorobenzene

> <iupac>
1,2,3,4,5-Pentafluorobenzene

> <MPID>
20768

> <dsstox_substance_id>
DTXSID8059893

> <Canonical_QSARr>
Fc1c(F)c(F)cc(F)c1F

> <InChI_Code_QSARr>
InChI=1S/C6HF5/c7-2-1-3(8)5(10)6(11)4(2)9/h1H

> <InChI Key_QSARr>
WACNXHCZHTVBJM-UHFFFAOYSA-N

> <Salt_Solvent>
?

> <BP>
85.7

$$$$
101723
  -INDIGO-08031720192D

 13 13  0  0  0  0  0  0  0  0999 V2000
   -0.0000   -0.0000    0.0000 C   0  0  0  0  0  0  0  0  0  0  0  0
    0.8000    1.3856    0.0000 O   0  0  0  0  0  0  0  0  0  0  0  0
    2.4000    1.3856    0.0000 H   0  0  0  0  0  0  0  0  0  0  0  0
    0.8000   -1.3857    0.0000 C   0  0  0  0  0  0  0  0  0  0  0  0
    2.4000   -1.3857    0.0000 F   0  0  0  0  0  0  0  0  0  0  0  0
   -0.0000   -2.7713    0.0000 C   0  0  0  0  0  0  0  0  0  0  0  0
    0.8000   -4.1569    0.0000 H   0  0  0  0  0  0  0  0  0  0  0  0
   -1.6000   -2.7713    0.0000 C   0  0  0  0  0  0  0  0  0  0  0  0
   -2.4000   -4.1569    0.0000 H   0  0  0  0  0  0  0  0  0  0  0  0
   -2.4000   -1.3856    0.0000 C   0  0  0  0  0  0  0  0  0  0  0  0
   -4.0000   -1.3856    0.0000 H   0  0  0  0  0  0  0  0  0  0  0  0
   -1.6000   -0.0000    0.0000 C   0  0  0  0  0  0  0  0  0  0  0  0
   -2.4000    1.3856    0.0000 H   0  0  0  0  0  0  0  0  0  0  0  0
  1  2  1  0  0  0  0
  2  3  1  0  0  0  0
  1  4  1  0  0  0  0
  4  5  1  0  0  0  0
  4  6  2  0  0  0  0
  6  7  1  0  0  0  0
  6  8  1  0  0  0  0
  8  9  1  0  0  0  0
  8 10  2  0  0  0  0
 10 11  1  0  0  0  0
 10 12  1  0  0  0  0
 12  1  2  0  0  0  0
 12 13  1  0  0  0  0
M  END
> <ChemID>
101723

> <source_casrn>
367-12-4

> <CAS>
367-12-4

> <SMILES>
Oc1ccccc1F

> <NAME>
O-FLUOROPHENOL

> <preferred_name>
2-Fluorophenol

> <iupac>
2-fluorophenol

> <MPID>
20772

> <dsstox_substance_id>
DTXSID0047745

> <Canonical_QSARr>
Oc1ccccc1F

> <InChI_Code_QSARr>
InChI=1S/C6H5FO/c7-5-3-1-2-4-6(5)8/h1-4,8H

> <InChI Key_QSARr>
HFHFGHLXUCOHLN-UHFFFAOYSA-N

> <Salt_Solvent>
?

> <BP>
151.5

$$$$
101727
  -INDIGO-08031720192D

 15 14  0  0  0  0  0  0  0  0999 V2000
   -1.3856    2.4000    0.0000 O   0  0  0  0  0  0  0  0  0  0  0  0
   -1.3856    0.8000    0.0000 C   0  0  0  0  0  0  0  0  0  0  0  0
    0.0001    0.0000    0.0000 C   0  0  0  0  0  0  0  0  0  0  0  0
   -0.6123   -1.4782    0.0000 H   0  0  0  0  0  0  0  0  0  0  0  0
    0.6123   -1.4782    0.0000 H   0  0  0  0  0  0  0  0  0  0  0  0
    1.3856    0.8000    0.0000 C   0  0  0  0  0  0  0  0  0  0  0  0
    1.3856    2.4000    0.0000 O   0  0  0  0  0  0  0  0  0  0  0  0
    2.7713    0.0000    0.0000 C   0  0  0  0  0  0  0  0  0  0  0  0
    4.1569   -0.8000    0.0000 F   0  0  0  0  0  0  0  0  0  0  0  0
    4.1569    0.8000    0.0000 F   0  0  0  0  0  0  0  0  0  0  0  0
    2.7713   -1.6000    0.0000 F   0  0  0  0  0  0  0  0  0  0  0  0
   -2.7712    0.0000    0.0000 C   0  0  0  0  0  0  0  0  0  0  0  0
   -4.1569   -0.8000    0.0000 H   0  0  0  0  0  0  0  0  0  0  0  0
   -4.1569    0.8000    0.0000 H   0  0  0  0  0  0  0  0  0  0  0  0
   -2.7713   -1.6000    0.0000 H   0  0  0  0  0  0  0  0  0  0  0  0
  1  2  2  0  0  0  0
  2  3  1  0  0  0  0
  3  4  1  0  0  0  0
  3  5  1  0  0  0  0
  3  6  1  0  0  0  0
  6  7  2  0  0  0  0
  6  8  1  0  0  0  0
  8  9  1  0  0  0  0
  8 10  1  0  0  0  0
  8 11  1  0  0  0  0
  2 12  1  0  0  0  0
 12 13  1  0  0  0  0
 12 14  1  0  0  0  0
 12 15  1  0  0  0  0
M  END
> <ChemID>
101727

> <source_casrn>
367-57-7

> <CAS>
367-57-7

> <SMILES>
CC(=O)CC(=O)C(F)(F)F

> <NAME>
2,4-Pentanedione, 1,1,1-trifluoro-

> <preferred_name>
2,4-Pentanedione, 1,1,1-trifluoro-

> <iupac>
1,1,1-Trifluoropentane-2,4-dione

> <MPID>
20776

> <dsstox_substance_id>
DTXSID3059896

> <Canonical_QSARr>
CC(=O)CC(=O)C(F)(F)F

> <InChI_Code_QSARr>
InChI=1S/C5H5F3O2/c1-3(9)2-4(10)5(6,7)8/h2H2,1H3

> <InChI Key_QSARr>
SHXHPUAKLCCLDV-UHFFFAOYSA-N

> <Salt_Solvent>
?

> <BP>
106.0

$$$$
101731
  -INDIGO-08031720192D

 16 16  0  0  0  0  0  0  0  0999 V2000
    1.3857    0.8000    0.0000 C   0  0  0  0  0  0  0  0  0  0  0  0
    2.7713    1.6000    0.0000 F   0  0  0  0  0  0  0  0  0  0  0  0
    2.7713   -0.0000    0.0000 F   0  0  0  0  0  0  0  0  0  0  0  0
    1.3857    2.4000    0.0000 F   0  0  0  0  0  0  0  0  0  0  0  0
    0.0000   -0.0000    0.0000 C   0  0  0  0  0  0  0  0  0  0  0  0
   -1.3857    0.8000    0.0000 C   0  0  0  0  0  0  0  0  0  0  0  0
   -1.3857    2.4000    0.0000 H   0  0  0  0  0  0  0  0  0  0  0  0
   -2.7713   -0.0000    0.0000 C   0  0  0  0  0  0  0  0  0  0  0  0
   -4.1570    0.8000    0.0000 C   0  0  0  0  0  0  0  0  0  0  0  0
   -5.5426    1.6000    0.0000 N   0  0  0  0  0  0  0  0  0  0  0  0
   -2.7713   -1.6000    0.0000 C   0  0  0  0  0  0  0  0  0  0  0  0
   -4.1569   -2.4000    0.0000 H   0  0  0  0  0  0  0  0  0  0  0  0
   -1.3856   -2.4000    0.0000 C   0  0  0  0  0  0  0  0  0  0  0  0
   -1.3856   -4.0000    0.0000 H   0  0  0  0  0  0  0  0  0  0  0  0
    0.0000   -1.6000    0.0000 C   0  0  0  0  0  0  0  0  0  0  0  0
    1.3857   -2.4000    0.0000 H   0  0  0  0  0  0  0  0  0  0  0  0
  1  2  1  0  0  0  0
  1  3  1  0  0  0  0
  1  4  1  0  0  0  0
  1  5  1  0  0  0  0
  5  6  1  0  0  0  0
  6  7  1  0  0  0  0
  6  8  2  0  0  0  0
  8  9  1  0  0  0  0
  9 10  3  0  0  0  0
  8 11  1  0  0  0  0
 11 12  1  0  0  0  0
 11 13  2  0  0  0  0
 13 14  1  0  0  0  0
 13 15  1  0  0  0  0
 15  5  2  0  0  0  0
 15 16  1  0  0  0  0
M  END
> <ChemID>
101731

> <source_casrn>
368-77-4

> <CAS>
368-77-4

> <SMILES>
N#Cc1cc(ccc1)C(F)(F)F

> <NAME>
A,A,A-TRIFLUOR-M-TOLUNITRIL

> <preferred_name>
alpha,alpha,alpha-Trifluoro-m-tolunitrile

> <iupac>
3-(trifluoromethyl)benzonitrile

> <MPID>
20780

> <dsstox_substance_id>
DTXSID4022026

> <Canonical_QSARr>
N#Cc1cc(ccc1)C(F)(F)F

> <InChI_Code_QSARr>
InChI=1S/C8H4F3N/c9-8(10,11)7-3-1-2-6(4-7)5-12/h1-4H

> <InChI Key_QSARr>
OGOBINRVCUWLGN-UHFFFAOYSA-N

> <Salt_Solvent>
?

> <BP>
189.0

$$$$
101735
  -INDIGO-08031720192D

  9  8  0  0  0  0  0  0  0  0999 V2000
    0.0000    0.0000    0.0000 C   0  0  0  0  0  0  0  0  0  0  0  0
    0.2089   -1.5863    0.0000 H   0  0  0  0  0  0  0  0  0  0  0  0
    1.2694   -0.9740    0.0000 H   0  0  0  0  0  0  0  0  0  0  0  0
   -1.6000    0.0000    0.0000 C   0  0  0  0  0  0  0  0  0  0  0  0
   -3.2000    0.0000    0.0000 H   0  0  0  0  0  0  0  0  0  0  0  0
   -2.4000   -1.3856    0.0000 H   0  0  0  0  0  0  0  0  0  0  0  0
   -2.4000    1.3856    0.0000 F   0  0  0  0  0  0  0  0  0  0  0  0
    0.8000    1.3856    0.0000 O   0  0  0  0  0  0  0  0  0  0  0  0
    2.4000    1.3856    0.0000 H   0  0  0  0  0  0  0  0  0  0  0  0
  1  2  1  0  0  0  0
  1  3  1  0  0  0  0
  1  4  1  0  0  0  0
  4  5  1  0  0  0  0
  4  6  1  0  0  0  0
  4  7  1  0  0  0  0
  1  8  1  0  0  0  0
  8  9  1  0  0  0  0
M  END
> <ChemID>
101735

> <source_casrn>
371-62-0

> <CAS>
371-62-0

> <SMILES>
OCCF

> <NAME>
2-FLUOROETHANOL

> <preferred_name>
2-Fluoroethanol

> <iupac>
2-Fluoroethanol

> <MPID>
20784

> <dsstox_substance_id>
DTXSID0059902

> <Canonical_QSARr>
OCCF

> <InChI_Code_QSARr>
InChI=1S/C2H5FO/c3-1-2-4/h4H,1-2H2

> <InChI Key_QSARr>
GGDYAKVUZMZKRV-UHFFFAOYSA-N

> <Salt_Solvent>
?

> <BP>
103.5

$$$$
101739
  -INDIGO-08031720192D

 19 18  0  0  0  0  0  0  0  0999 V2000
    1.3857    2.4000    0.0000 O   0  0  0  0  0  0  0  0  0  0  0  0
    1.3857    0.8000    0.0000 C   0  0  0  0  0  0  0  0  0  0  0  0
    2.7712    0.0000    0.0000 O   0  0  0  0  0  0  0  0  0  0  0  0
    4.1569    0.8000    0.0000 C   0  0  0  0  0  0  0  0  0  0  0  0
    4.7692    2.2782    0.0000 H   0  0  0  0  0  0  0  0  0  0  0  0
    3.5446    2.2782    0.0000 H   0  0  0  0  0  0  0  0  0  0  0  0
    5.5425    0.0000    0.0000 C   0  0  0  0  0  0  0  0  0  0  0  0
    6.9282   -0.8000    0.0000 H   0  0  0  0  0  0  0  0  0  0  0  0
    6.9282    0.8000    0.0000 H   0  0  0  0  0  0  0  0  0  0  0  0
    5.5425   -1.6000    0.0000 H   0  0  0  0  0  0  0  0  0  0  0  0
    0.0001    0.0000    0.0000 C   0  0  0  0  0  0  0  0  0  0  0  0
   -0.6123   -1.4782    0.0000 H   0  0  0  0  0  0  0  0  0  0  0  0
    0.6122   -1.4782    0.0000 H   0  0  0  0  0  0  0  0  0  0  0  0
   -1.3856    0.8000    0.0000 C   0  0  0  0  0  0  0  0  0  0  0  0
   -1.3856    2.4000    0.0000 O   0  0  0  0  0  0  0  0  0  0  0  0
   -2.7713    0.0000    0.0000 C   0  0  0  0  0  0  0  0  0  0  0  0
   -4.1569   -0.8000    0.0000 F   0  0  0  0  0  0  0  0  0  0  0  0
   -4.1569    0.8000    0.0000 F   0  0  0  0  0  0  0  0  0  0  0  0
   -2.7713   -1.6000    0.0000 F   0  0  0  0  0  0  0  0  0  0  0  0
  1  2  2  0  0  0  0
  2  3  1  0  0  0  0
  3  4  1  0  0  0  0
  4  5  1  0  0  0  0
  4  6  1  0  0  0  0
  4  7  1  0  0  0  0
  7  8  1  0  0  0  0
  7  9  1  0  0  0  0
  7 10  1  0  0  0  0
  2 11  1  0  0  0  0
 11 12  1  0  0  0  0
 11 13  1  0  0  0  0
 11 14  1  0  0  0  0
 14 15  2  0  0  0  0
 14 16  1  0  0  0  0
 16 17  1  0  0  0  0
 16 18  1  0  0  0  0
 16 19  1  0  0  0  0
M  END
> <ChemID>
101739

> <source_casrn>
372-31-6

> <CAS>
372-31-6

> <SMILES>
CCOC(=O)CC(=O)C(F)(F)F

> <NAME>
Butanoic acid, 4,4,4-trifluoro-3-oxo-, ethyl est

> <preferred_name>
Ethyl 4,4,4-trifluoroacetoacetate

> <iupac>
ethyl 4,4,4-trifluoro-3-oxobutanoate

> <MPID>
20788

> <dsstox_substance_id>
DTXSID5059905

> <Canonical_QSARr>
CCOC(=O)CC(=O)C(F)(F)F

> <InChI_Code_QSARr>
InChI=1S/C6H7F3O3/c1-2-12-5(11)3-4(10)6(7,8)9/h2-3H2,1H3

> <InChI Key_QSARr>
OCJKUQIPRNZDTK-UHFFFAOYSA-N

> <Salt_Solvent>
?

> <BP>
133.0

$$$$
101743
  -INDIGO-08031720192D

 11 11  0  0  0  0  0  0  0  0999 V2000
   -2.7713    3.2000    0.0000 F   0  0  0  0  0  0  0  0  0  0  0  0
   -1.3856    2.4000    0.0000 C   0  0  0  0  0  0  0  0  0  0  0  0
    0.0000    3.2000    0.0000 N   0  0  0  0  0  0  0  0  0  0  0  0
    1.3856    2.4000    0.0000 C   0  0  0  0  0  0  0  0  0  0  0  0
    2.7713    3.2000    0.0000 H   0  0  0  0  0  0  0  0  0  0  0  0
    1.3856    0.8000    0.0000 C   0  0  0  0  0  0  0  0  0  0  0  0
    2.7713    0.0000    0.0000 H   0  0  0  0  0  0  0  0  0  0  0  0
    0.0000    0.0000    0.0000 C   0  0  0  0  0  0  0  0  0  0  0  0
    0.0000   -1.6000    0.0000 H   0  0  0  0  0  0  0  0  0  0  0  0
   -1.3856    0.8000    0.0000 C   0  0  0  0  0  0  0  0  0  0  0  0
   -2.7713    0.0000    0.0000 H   0  0  0  0  0  0  0  0  0  0  0  0
  1  2  1  0  0  0  0
  2  3  1  0  0  0  0
  3  4  2  0  0  0  0
  4  5  1  0  0  0  0
  4  6  1  0  0  0  0
  6  7  1  0  0  0  0
  6  8  2  0  0  0  0
  8  9  1  0  0  0  0
  8 10  1  0  0  0  0
 10  2  2  0  0  0  0
 10 11  1  0  0  0  0
M  END
> <ChemID>
101743

> <source_casrn>
372-48-5

> <CAS>
372-48-5

> <SMILES>
Fc1cccc[n]1

> <NAME>
2-FLUOROPYRIDINE

> <preferred_name>
Pyridine, 2-fluoro-

> <iupac>
2-Fluoropyridine

> <MPID>
20792

> <dsstox_substance_id>
DTXSID70190689

> <Canonical_QSARr>
Fc1cccc[n]1

> <InChI_Code_QSARr>
InChI=1S/C5H4FN/c6-5-3-1-2-4-7-5/h1-4H

> <InChI Key_QSARr>
MTAODLNXWYIKSO-UHFFFAOYSA-N

> <Salt_Solvent>
?

> <BP>
127.0

$$$$
101747
  -INDIGO-08031720192D

  5  4  0  0  0  0  0  0  0  0999 V2000
    0.0000    0.0000    0.0000 C   0  0  0  0  0  0  0  0  0  0  0  0
    0.8000    1.3856    0.0000 H   0  0  0  0  0  0  0  0  0  0  0  0
   -1.3856    0.8000    0.0000 H   0  0  0  0  0  0  0  0  0  0  0  0
    1.3856   -0.8000    0.0000 F   0  0  0  0  0  0  0  0  0  0  0  0
   -0.8000   -1.3856    0.0000 Br  0  0  0  0  0  0  0  0  0  0  0  0
  1  2  1  0  0  0  0
  1  3  1  0  0  0  0
  1  4  1  0  0  0  0
  1  5  1  0  0  0  0
M  END
> <ChemID>
101747

> <source_casrn>
373-52-4

> <CAS>
373-52-4

> <SMILES>
FCBr

> <NAME>
METHANE, BROMOFLUORO-

> <preferred_name>
Bromofluoromethane

> <iupac>
bromo-fluoromethane

> <MPID>
20796

> <dsstox_substance_id>
DTXSID3074319

> <Canonical_QSARr>
FCBr

> <InChI_Code_QSARr>
InChI=1S/CH2BrF/c2-1-3/h1H2

> <InChI Key_QSARr>
LHMHCLYDBQOYTO-UHFFFAOYSA-N

> <Salt_Solvent>
?

> <BP>
19.0

$$$$
101751
  -INDIGO-08031720192D

  8  7  0  0  0  0  0  0  0  0999 V2000
    0.0000    0.0000    0.0000 C   0  0  0  0  0  0  0  0  0  0  0  0
    1.6000    0.0000    0.0000 C   0  0  0  0  0  0  0  0  0  0  0  0
    3.2000    0.0000    0.0000 F   0  0  0  0  0  0  0  0  0  0  0  0
    2.4000   -1.3856    0.0000 F   0  0  0  0  0  0  0  0  0  0  0  0
    2.4000    1.3856    0.0000 F   0  0  0  0  0  0  0  0  0  0  0  0
   -1.6000   -0.0000    0.0000 Cl  0  0  0  0  0  0  0  0  0  0  0  0
   -0.8000   -1.3856    0.0000 Cl  0  0  0  0  0  0  0  0  0  0  0  0
   -0.8000    1.3856    0.0000 F   0  0  0  0  0  0  0  0  0  0  0  0
  1  2  1  0  0  0  0
  2  3  1  0  0  0  0
  2  4  1  0  0  0  0
  2  5  1  0  0  0  0
  1  6  1  0  0  0  0
  1  7  1  0  0  0  0
  1  8  1  0  0  0  0
M  END
> <ChemID>
101751

> <source_casrn>
374-07-2

> <CAS>
374-07-2

> <SMILES>
FC(F)(F)C(F)(Cl)Cl

> <NAME>
1,1-DICHLORO-1,2,2,2-TETRAFLUOROETHANE

> <preferred_name>
Ethane, 1,1-dichloro-1,2,2,2-tetrafluoro-

> <iupac>
1,1-dichloro-1,2,2,2-tetrafluoroethane

> <MPID>
20800

> <dsstox_substance_id>
DTXSID9027150

> <Canonical_QSARr>
FC(F)(F)C(F)(Cl)Cl

> <InChI_Code_QSARr>
InChI=1S/C2Cl2F4/c3-1(4,5)2(6,7)8

> <InChI Key_QSARr>
BAMUEXIPKSRTBS-UHFFFAOYSA-N

> <Salt_Solvent>
?

> <BP>
4.0

$$$$
101756
  -INDIGO-08031720192D

 15 14  0  0  0  0  0  0  0  0999 V2000
   -1.3856    0.8000    0.0000 C   0  0  0  0  0  0  0  0  0  0  0  0
    0.0001   -0.0000    0.0000 C   0  0  0  0  0  0  0  0  0  0  0  0
    1.3856    0.8000    0.0000 C   0  0  0  0  0  0  0  0  0  0  0  0
    1.9979    2.2782    0.0000 H   0  0  0  0  0  0  0  0  0  0  0  0
    0.7734    2.2782    0.0000 H   0  0  0  0  0  0  0  0  0  0  0  0
    2.7713   -0.0000    0.0000 O   0  0  0  0  0  0  0  0  0  0  0  0
    4.1569    0.8000    0.0000 H   0  0  0  0  0  0  0  0  0  0  0  0
   -0.6123   -1.4782    0.0000 F   0  0  0  0  0  0  0  0  0  0  0  0
    0.6123   -1.4782    0.0000 F   0  0  0  0  0  0  0  0  0  0  0  0
   -2.7712   -0.0000    0.0000 C   0  0  0  0  0  0  0  0  0  0  0  0
   -4.1569   -0.8000    0.0000 F   0  0  0  0  0  0  0  0  0  0  0  0
   -4.1569    0.8000    0.0000 F   0  0  0  0  0  0  0  0  0  0  0  0
   -2.7713   -1.6000    0.0000 F   0  0  0  0  0  0  0  0  0  0  0  0
   -0.7734    2.2782    0.0000 F   0  0  0  0  0  0  0  0  0  0  0  0
   -1.9979    2.2782    0.0000 F   0  0  0  0  0  0  0  0  0  0  0  0
  1  2  1  0  0  0  0
  2  3  1  0  0  0  0
  3  4  1  0  0  0  0
  3  5  1  0  0  0  0
  3  6  1  0  0  0  0
  6  7  1  0  0  0  0
  2  8  1  0  0  0  0
  2  9  1  0  0  0  0
  1 10  1  0  0  0  0
 10 11  1  0  0  0  0
 10 12  1  0  0  0  0
 10 13  1  0  0  0  0
  1 14  1  0  0  0  0
  1 15  1  0  0  0  0
M  END
> <ChemID>
101756

> <source_casrn>
375-01-9

> <CAS>
375-01-9

> <SMILES>
OCC(F)(F)C(F)(F)C(F)(F)F

> <NAME>
2,2,3,3,4,4,-HEPTAFLUOROBUTANOL

> <preferred_name>
1-Butanol, 2,2,3,3,4,4,4-heptafluoro-

> <iupac>
2,2,3,3,4,4,4-Heptafluorobutan-1-ol

> <MPID>
20804

> <dsstox_substance_id>
DTXSID4059914

> <Canonical_QSARr>
OCC(F)(F)C(F)(F)C(F)(F)F

> <InChI_Code_QSARr>
InChI=1S/C4H3F7O/c5-2(6,1-12)3(7,8)4(9,10)11/h12H,1H2

> <InChI Key_QSARr>
WXJFKAZDSQLPBX-UHFFFAOYSA-N

> <Salt_Solvent>
?

> <BP>
95.0

$$$$
101760
  -INDIGO-08031720192D

 14 13  0  0  0  0  0  0  0  0999 V2000
    1.3856   -2.4000    0.0000 I   0  0  0  0  0  0  0  0  0  0  0  0
    1.3856   -0.8000    0.0000 C   0  0  0  0  0  0  0  0  0  0  0  0
    2.7713   -1.6000    0.0000 F   0  0  0  0  0  0  0  0  0  0  0  0
    2.7713    0.0000    0.0000 F   0  0  0  0  0  0  0  0  0  0  0  0
    0.0000    0.0000    0.0000 C   0  0  0  0  0  0  0  0  0  0  0  0
    0.6123    1.4782    0.0000 F   0  0  0  0  0  0  0  0  0  0  0  0
   -0.6123    1.4782    0.0000 F   0  0  0  0  0  0  0  0  0  0  0  0
   -1.3856   -0.8000    0.0000 C   0  0  0  0  0  0  0  0  0  0  0  0
   -1.9980   -2.2782    0.0000 F   0  0  0  0  0  0  0  0  0  0  0  0
   -0.7733   -2.2782    0.0000 F   0  0  0  0  0  0  0  0  0  0  0  0
   -2.7713    0.0000    0.0000 C   0  0  0  0  0  0  0  0  0  0  0  0
   -4.1569    0.8000    0.0000 I   0  0  0  0  0  0  0  0  0  0  0  0
   -4.1569   -0.8000    0.0000 F   0  0  0  0  0  0  0  0  0  0  0  0
   -2.7713    1.6000    0.0000 F   0  0  0  0  0  0  0  0  0  0  0  0
  1  2  1  0  0  0  0
  2  3  1  0  0  0  0
  2  4  1  0  0  0  0
  2  5  1  0  0  0  0
  5  6  1  0  0  0  0
  5  7  1  0  0  0  0
  5  8  1  0  0  0  0
  8  9  1  0  0  0  0
  8 10  1  0  0  0  0
  8 11  1  0  0  0  0
 11 12  1  0  0  0  0
 11 13  1  0  0  0  0
 11 14  1  0  0  0  0
M  END
> <ChemID>
101760

> <source_casrn>
375-50-8

> <CAS>
375-50-8

> <SMILES>
FC(F)(I)C(F)(F)C(F)(F)C(F)(F)I

> <NAME>
1,4-Diiodo octafluorobutane

> <preferred_name>
1,1,2,2,3,3,4,4-Octafluoro-1,4-diiodobutane

> <iupac>
1,1,2,2,3,3,4,4-Octafluoro-1,4-diiodobutane

> <MPID>
20808

> <dsstox_substance_id>
DTXSID30190948

> <Canonical_QSARr>
FC(F)(I)C(F)(F)C(F)(F)C(F)(F)I

> <InChI_Code_QSARr>
InChI=1S/C4F8I2/c5-1(6,3(9,10)13)2(7,8)4(11,12)14

> <InChI Key_QSARr>
JILAKKYYZPDQBE-UHFFFAOYSA-N

> <Salt_Solvent>
?

> <BP>
150.0

$$$$
101766
  -INDIGO-08031720192D

 29 28  0  0  0  0  0  0  0  0999 V2000
   -0.6122   -1.4782    0.0000 F   0  0  0  0  0  0  0  0  0  0  0  0
    0.0001   -0.0000    0.0000 C   0  0  0  0  0  0  0  0  0  0  0  0
    0.6122   -1.4782    0.0000 F   0  0  0  0  0  0  0  0  0  0  0  0
   -1.3856    0.8000    0.0000 C   0  0  0  0  0  0  0  0  0  0  0  0
   -1.9980    2.2782    0.0000 F   0  0  0  0  0  0  0  0  0  0  0  0
   -0.7733    2.2782    0.0000 F   0  0  0  0  0  0  0  0  0  0  0  0
   -2.7712   -0.0000    0.0000 C   0  0  0  0  0  0  0  0  0  0  0  0
   -2.1591   -1.4782    0.0000 F   0  0  0  0  0  0  0  0  0  0  0  0
   -3.3835   -1.4782    0.0000 F   0  0  0  0  0  0  0  0  0  0  0  0
   -4.1569    0.8000    0.0000 C   0  0  0  0  0  0  0  0  0  0  0  0
   -4.7692    2.2782    0.0000 F   0  0  0  0  0  0  0  0  0  0  0  0
   -3.5446    2.2782    0.0000 F   0  0  0  0  0  0  0  0  0  0  0  0
   -5.5425   -0.0000    0.0000 C   0  0  0  0  0  0  0  0  0  0  0  0
   -6.9282   -0.8000    0.0000 F   0  0  0  0  0  0  0  0  0  0  0  0
   -6.9282    0.8000    0.0000 F   0  0  0  0  0  0  0  0  0  0  0  0
   -5.5425   -1.6000    0.0000 F   0  0  0  0  0  0  0  0  0  0  0  0
    1.3856    0.8000    0.0000 C   0  0  0  0  0  0  0  0  0  0  0  0
    0.7733    2.2782    0.0000 F   0  0  0  0  0  0  0  0  0  0  0  0
    1.9980    2.2782    0.0000 F   0  0  0  0  0  0  0  0  0  0  0  0
    2.7714   -0.0000    0.0000 C   0  0  0  0  0  0  0  0  0  0  0  0
    3.3835   -1.4782    0.0000 F   0  0  0  0  0  0  0  0  0  0  0  0
    2.1591   -1.4782    0.0000 F   0  0  0  0  0  0  0  0  0  0  0  0
    4.1569    0.8000    0.0000 C   0  0  0  0  0  0  0  0  0  0  0  0
    3.5446    2.2782    0.0000 F   0  0  0  0  0  0  0  0  0  0  0  0
    4.7692    2.2782    0.0000 F   0  0  0  0  0  0  0  0  0  0  0  0
    5.5427   -0.0000    0.0000 C   0  0  0  0  0  0  0  0  0  0  0  0
    6.9282   -0.8000    0.0000 F   0  0  0  0  0  0  0  0  0  0  0  0
    6.9282    0.8000    0.0000 F   0  0  0  0  0  0  0  0  0  0  0  0
    5.5427   -1.6000    0.0000 F   0  0  0  0  0  0  0  0  0  0  0  0
  1  2  1  0  0  0  0
  2  3  1  0  0  0  0
  2  4  1  0  0  0  0
  4  5  1  0  0  0  0
  4  6  1  0  0  0  0
  4  7  1  0  0  0  0
  7  8  1  0  0  0  0
  7  9  1  0  0  0  0
  7 10  1  0  0  0  0
 10 11  1  0  0  0  0
 10 12  1  0  0  0  0
 10 13  1  0  0  0  0
 13 14  1  0  0  0  0
 13 15  1  0  0  0  0
 13 16  1  0  0  0  0
  2 17  1  0  0  0  0
 17 18  1  0  0  0  0
 17 19  1  0  0  0  0
 17 20  1  0  0  0  0
 20 21  1  0  0  0  0
 20 22  1  0  0  0  0
 20 23  1  0  0  0  0
 23 24  1  0  0  0  0
 23 25  1  0  0  0  0
 23 26  1  0  0  0  0
 26 27  1  0  0  0  0
 26 28  1  0  0  0  0
 26 29  1  0  0  0  0
M  END
> <ChemID>
101766

> <source_casrn>
375-96-2

> <CAS>
375-96-2

> <SMILES>
FC(F)(F)C(F)(F)C(F)(F)C(F)(F)C(F)(F)C(F)(F)C(F)(F)C(F)(F)C(F)(F)F

> <NAME>
Perfluorononane

> <preferred_name>
Perfluorononane

> <iupac>
C9F20

> <MPID>
20812

> <dsstox_substance_id>
DTXSID60334479

> <Canonical_QSARr>
FC(F)(F)C(F)(F)C(F)(F)C(F)(F)C(F)(F)C(F)(F)C(F)(F)C(F)(F)C(F)(F)F

> <InChI_Code_QSARr>
InChI=1S/C9F20/c10-1(11,2(12,13)4(16,17)6(20,21)8(24,25)26)3(14,15)5(18,19)7(22,23)9(27,28)29

> <InChI Key_QSARr>
UVWPNDVAQBNQBG-UHFFFAOYSA-N

> <Salt_Solvent>
?

> <BP>
123.0

$$$$
101770
  -INDIGO-08031720192D

 10  9  0  0  0  0  0  0  0  0999 V2000
    1.3856   -0.8000    0.0000 C   0  0  0  0  0  0  0  0  0  0  0  0
    2.7713    0.0000    0.0000 H   0  0  0  0  0  0  0  0  0  0  0  0
    1.3856   -2.4000    0.0000 H   0  0  0  0  0  0  0  0  0  0  0  0
    0.0000    0.0000    0.0000 C   0  0  0  0  0  0  0  0  0  0  0  0
   -1.3856   -0.8000    0.0000 C   0  0  0  0  0  0  0  0  0  0  0  0
   -1.3856   -2.4000    0.0000 H   0  0  0  0  0  0  0  0  0  0  0  0
   -2.7713    0.0000    0.0000 C   0  0  0  0  0  0  0  0  0  0  0  0
   -4.1569   -0.8000    0.0000 H   0  0  0  0  0  0  0  0  0  0  0  0
   -2.7713    1.6000    0.0000 H   0  0  0  0  0  0  0  0  0  0  0  0
    0.0000    1.6000    0.0000 F   0  0  0  0  0  0  0  0  0  0  0  0
  1  2  1  0  0  0  0
  1  3  1  0  0  0  0
  1  4  2  0  0  0  0
  4  5  1  0  0  0  0
  5  6  1  0  0  0  0
  5  7  2  0  0  0  0
  7  8  1  0  0  0  0
  7  9  1  0  0  0  0
  4 10  1  0  0  0  0
M  END
> <ChemID>
101770

> <source_casrn>
381-61-3

> <CAS>
NOCAS_870522

> <SMILES>
C=CC(=C)F

> <NAME>
1,3-BUTADIENE, 2-FLUORO-

> <preferred_name>


> <iupac>


> <MPID>
20816

> <dsstox_substance_id>
DTXSID40870522

> <Canonical_QSARr>
C=CC(=C)F

> <InChI_Code_QSARr>
InChI=1S/C4H5F/c1-3-4(2)5/h3H,1-2H2

> <InChI Key_QSARr>
BQHQZFUAEAVJRE-UHFFFAOYSA-N

> <Salt_Solvent>
?

> <BP>
12.0

$$$$
101774
  -INDIGO-08031720192D

 15 14  0  0  0  0  0  0  0  0999 V2000
    1.3856    0.8000    0.0000 C   0  0  0  0  0  0  0  0  0  0  0  0
    1.9979    2.2782    0.0000 H   0  0  0  0  0  0  0  0  0  0  0  0
    0.7734    2.2782    0.0000 H   0  0  0  0  0  0  0  0  0  0  0  0
    0.0001   -0.0000    0.0000 C   0  0  0  0  0  0  0  0  0  0  0  0
   -1.3856    0.8000    0.0000 C   0  0  0  0  0  0  0  0  0  0  0  0
   -0.7734    2.2782    0.0000 H   0  0  0  0  0  0  0  0  0  0  0  0
   -2.7712   -0.0000    0.0000 C   0  0  0  0  0  0  0  0  0  0  0  0
   -4.1569   -0.8000    0.0000 F   0  0  0  0  0  0  0  0  0  0  0  0
   -4.1569    0.8000    0.0000 F   0  0  0  0  0  0  0  0  0  0  0  0
   -2.7713   -1.6000    0.0000 F   0  0  0  0  0  0  0  0  0  0  0  0
   -1.9979    2.2782    0.0000 F   0  0  0  0  0  0  0  0  0  0  0  0
   -0.6123   -1.4782    0.0000 F   0  0  0  0  0  0  0  0  0  0  0  0
    0.6123   -1.4782    0.0000 F   0  0  0  0  0  0  0  0  0  0  0  0
    2.7713   -0.0000    0.0000 O   0  0  0  0  0  0  0  0  0  0  0  0
    4.1569    0.8000    0.0000 H   0  0  0  0  0  0  0  0  0  0  0  0
  1  2  1  0  0  0  0
  1  3  1  0  0  0  0
  1  4  1  0  0  0  0
  4  5  1  0  0  0  0
  5  6  1  0  0  0  0
  5  7  1  0  0  0  0
  7  8  1  0  0  0  0
  7  9  1  0  0  0  0
  7 10  1  0  0  0  0
  5 11  1  0  0  0  0
  4 12  1  0  0  0  0
  4 13  1  0  0  0  0
  1 14  1  0  0  0  0
 14 15  1  0  0  0  0
M  END
> <ChemID>
101774

> <source_casrn>
382-31-0

> <CAS>
NOCAS_870523

> <SMILES>
OCC(F)(F)C(F)C(F)(F)F

> <NAME>
2,2,3,4,4,4-Hexafluoro-1-butanol

> <preferred_name>


> <iupac>


> <MPID>
20820

> <dsstox_substance_id>
DTXSID00870523

> <Canonical_QSARr>
OCC(F)(F)C(F)C(F)(F)F

> <InChI_Code_QSARr>
InChI=1S/C4H4F6O/c5-2(4(8,9)10)3(6,7)1-11/h2,11H,1H2

> <InChI Key_QSARr>
LVFXLZRISXUAIL-UHFFFAOYSA-N

> <Salt_Solvent>
?

> <BP>
117.0

$$$$
101778
  -INDIGO-08031720192D

 16 16  0  0  0  0  0  0  0  0999 V2000
   -1.3856    0.8000    0.0000 O   0  0  0  0  0  0  0  0  0  0  0  0
   -0.0001   -0.0000    0.0000 C   0  0  0  0  0  0  0  0  0  0  0  0
   -0.0001   -1.6000    0.0000 C   0  0  0  0  0  0  0  0  0  0  0  0
   -1.3856   -2.4000    0.0000 F   0  0  0  0  0  0  0  0  0  0  0  0
    1.3856   -2.4000    0.0000 C   0  0  0  0  0  0  0  0  0  0  0  0
    1.3856   -4.0000    0.0000 F   0  0  0  0  0  0  0  0  0  0  0  0
    2.7713   -1.6000    0.0000 C   0  0  0  0  0  0  0  0  0  0  0  0
    4.1569   -2.4000    0.0000 F   0  0  0  0  0  0  0  0  0  0  0  0
    2.7712   -0.0000    0.0000 C   0  0  0  0  0  0  0  0  0  0  0  0
    4.1569    0.8000    0.0000 F   0  0  0  0  0  0  0  0  0  0  0  0
    1.3856    0.8000    0.0000 C   0  0  0  0  0  0  0  0  0  0  0  0
    1.3856    2.4000    0.0000 F   0  0  0  0  0  0  0  0  0  0  0  0
   -2.7713   -0.0000    0.0000 C   0  0  0  0  0  0  0  0  0  0  0  0
   -4.1569    0.8000    0.0000 H   0  0  0  0  0  0  0  0  0  0  0  0
   -4.1569   -0.8000    0.0000 H   0  0  0  0  0  0  0  0  0  0  0  0
   -2.7713    1.6000    0.0000 H   0  0  0  0  0  0  0  0  0  0  0  0
  1  2  1  0  0  0  0
  2  3  1  0  0  0  0
  3  4  1  0  0  0  0
  3  5  2  0  0  0  0
  5  6  1  0  0  0  0
  5  7  1  0  0  0  0
  7  8  1  0  0  0  0
  7  9  2  0  0  0  0
  9 10  1  0  0  0  0
  9 11  1  0  0  0  0
 11  2  2  0  0  0  0
 11 12  1  0  0  0  0
  1 13  1  0  0  0  0
 13 14  1  0  0  0  0
 13 15  1  0  0  0  0
 13 16  1  0  0  0  0
M  END
> <ChemID>
101778

> <source_casrn>
389-40-2

> <CAS>
389-40-2

> <SMILES>
COc1c(F)c(F)c(F)c(F)c1F

> <NAME>
Benzene, pentafluoromethoxy-

> <preferred_name>
Pentafluoromethoxybenzene

> <iupac>
1,2,3,4,5-pentafluoro-6-methoxybenzene

> <MPID>
20824

> <dsstox_substance_id>
DTXSID2059938

> <Canonical_QSARr>
COc1c(F)c(F)c(F)c(F)c1F

> <InChI_Code_QSARr>
InChI=1S/C7H3F5O/c1-13-7-5(11)3(9)2(8)4(10)6(7)12/h1H3

> <InChI Key_QSARr>
ZRQUIRABLIQJRI-UHFFFAOYSA-N

> <Salt_Solvent>
?

> <BP>
138.5

$$$$
101782
  -INDIGO-08031720192D

 14 14  0  0  0  0  0  0  0  0999 V2000
    1.6000   -0.0000    0.0000 C   0  0  0  0  0  0  0  0  0  0  0  0
    2.4000    1.3856    0.0000 Cl  0  0  0  0  0  0  0  0  0  0  0  0
    2.4000   -1.3856    0.0000 O   0  0  0  0  0  0  0  0  0  0  0  0
    0.0000   -0.0000    0.0000 C   0  0  0  0  0  0  0  0  0  0  0  0
   -0.8000    1.3856    0.0000 C   0  0  0  0  0  0  0  0  0  0  0  0
    0.0000    2.7713    0.0000 H   0  0  0  0  0  0  0  0  0  0  0  0
   -2.4000    1.3856    0.0000 C   0  0  0  0  0  0  0  0  0  0  0  0
   -3.2000    2.7713    0.0000 H   0  0  0  0  0  0  0  0  0  0  0  0
   -3.2000   -0.0000    0.0000 C   0  0  0  0  0  0  0  0  0  0  0  0
   -4.8000   -0.0000    0.0000 H   0  0  0  0  0  0  0  0  0  0  0  0
   -2.4000   -1.3856    0.0000 C   0  0  0  0  0  0  0  0  0  0  0  0
   -3.2000   -2.7713    0.0000 H   0  0  0  0  0  0  0  0  0  0  0  0
   -0.8000   -1.3856    0.0000 C   0  0  0  0  0  0  0  0  0  0  0  0
    0.0000   -2.7713    0.0000 F   0  0  0  0  0  0  0  0  0  0  0  0
  1  2  1  0  0  0  0
  1  3  2  0  0  0  0
  1  4  1  0  0  0  0
  4  5  1  0  0  0  0
  5  6  1  0  0  0  0
  5  7  2  0  0  0  0
  7  8  1  0  0  0  0
  7  9  1  0  0  0  0
  9 10  1  0  0  0  0
  9 11  2  0  0  0  0
 11 12  1  0  0  0  0
 11 13  1  0  0  0  0
 13  4  2  0  0  0  0
 13 14  1  0  0  0  0
M  END
> <ChemID>
101782

> <source_casrn>
393-52-2

> <CAS>
393-52-2

> <SMILES>
O=C(Cl)c1ccccc1F

> <NAME>
Benzoyl chloride, 2-fluoro-

> <preferred_name>
2-Fluorobenzoyl chloride

> <iupac>
2-fluorobenzoyl chloride

> <MPID>
20828

> <dsstox_substance_id>
DTXSID3025330

> <Canonical_QSARr>
O=C(Cl)c1ccccc1F

> <InChI_Code_QSARr>
InChI=1S/C7H4ClFO/c8-7(10)5-3-1-2-4-6(5)9/h1-4H

> <InChI Key_QSARr>
RAAGZOYMEQDCTD-UHFFFAOYSA-N

> <Salt_Solvent>
?

> <BP>
206.0

$$$$
101786
  -INDIGO-08031720192D

 15 15  0  0  0  0  0  0  0  0999 V2000
    0.0000   -0.0000    0.0000 C   0  0  0  0  0  0  0  0  0  0  0  0
   -0.8001    1.3856    0.0000 C   0  0  0  0  0  0  0  0  0  0  0  0
    0.0000    2.7713    0.0000 H   0  0  0  0  0  0  0  0  0  0  0  0
   -2.4001    1.3856    0.0000 C   0  0  0  0  0  0  0  0  0  0  0  0
   -3.2000    2.7713    0.0000 Br  0  0  0  0  0  0  0  0  0  0  0  0
   -3.2000   -0.0000    0.0000 C   0  0  0  0  0  0  0  0  0  0  0  0
   -4.8000   -0.0000    0.0000 H   0  0  0  0  0  0  0  0  0  0  0  0
   -2.4001   -1.3856    0.0000 C   0  0  0  0  0  0  0  0  0  0  0  0
   -3.2000   -2.7713    0.0000 H   0  0  0  0  0  0  0  0  0  0  0  0
   -0.8001   -1.3856    0.0000 C   0  0  0  0  0  0  0  0  0  0  0  0
    0.0000   -2.7713    0.0000 H   0  0  0  0  0  0  0  0  0  0  0  0
    1.6000   -0.0000    0.0000 C   0  0  0  0  0  0  0  0  0  0  0  0
    3.2000   -0.0000    0.0000 F   0  0  0  0  0  0  0  0  0  0  0  0
    2.4001   -1.3856    0.0000 F   0  0  0  0  0  0  0  0  0  0  0  0
    2.4001    1.3856    0.0000 F   0  0  0  0  0  0  0  0  0  0  0  0
  1  2  1  0  0  0  0
  2  3  1  0  0  0  0
  2  4  2  0  0  0  0
  4  5  1  0  0  0  0
  4  6  1  0  0  0  0
  6  7  1  0  0  0  0
  6  8  2  0  0  0  0
  8  9  1  0  0  0  0
  8 10  1  0  0  0  0
 10  1  2  0  0  0  0
 10 11  1  0  0  0  0
  1 12  1  0  0  0  0
 12 13  1  0  0  0  0
 12 14  1  0  0  0  0
 12 15  1  0  0  0  0
M  END
> <ChemID>
101786

> <source_casrn>
401-78-5

> <CAS>
401-78-5

> <SMILES>
FC(F)(F)c1cccc(Br)c1

> <NAME>
Benzene, 1-bromo-3-(trifluoromethyl)-

> <preferred_name>
3-Bromobenzotrifluoride

> <iupac>
1-Bromo-3-(trifluoromethyl)benzene

> <MPID>
20832

> <dsstox_substance_id>
DTXSID1059947

> <Canonical_QSARr>
FC(F)(F)c1cccc(Br)c1

> <InChI_Code_QSARr>
InChI=1S/C7H4BrF3/c8-6-3-1-2-5(4-6)7(9,10)11/h1-4H

> <InChI Key_QSARr>
NNMBNYHMJRJUBC-UHFFFAOYSA-N

> <Salt_Solvent>
?

> <BP>
151.5

$$$$
101790
  -INDIGO-08031720192D

 15 15  0  0  0  0  0  0  0  0999 V2000
    2.4001    1.3856    0.0000 F   0  0  0  0  0  0  0  0  0  0  0  0
    1.6000   -0.0000    0.0000 C   0  0  0  0  0  0  0  0  0  0  0  0
    3.2000   -0.0000    0.0000 F   0  0  0  0  0  0  0  0  0  0  0  0
    2.4001   -1.3856    0.0000 F   0  0  0  0  0  0  0  0  0  0  0  0
    0.0000   -0.0000    0.0000 C   0  0  0  0  0  0  0  0  0  0  0  0
   -0.7999    1.3856    0.0000 C   0  0  0  0  0  0  0  0  0  0  0  0
    0.0000    2.7713    0.0000 H   0  0  0  0  0  0  0  0  0  0  0  0
   -2.4001    1.3856    0.0000 C   0  0  0  0  0  0  0  0  0  0  0  0
   -3.2000    2.7713    0.0000 H   0  0  0  0  0  0  0  0  0  0  0  0
   -3.2000   -0.0000    0.0000 C   0  0  0  0  0  0  0  0  0  0  0  0
   -4.8000   -0.0000    0.0000 F   0  0  0  0  0  0  0  0  0  0  0  0
   -2.4001   -1.3856    0.0000 C   0  0  0  0  0  0  0  0  0  0  0  0
   -3.2000   -2.7713    0.0000 H   0  0  0  0  0  0  0  0  0  0  0  0
   -0.8001   -1.3856    0.0000 C   0  0  0  0  0  0  0  0  0  0  0  0
    0.0000   -2.7713    0.0000 H   0  0  0  0  0  0  0  0  0  0  0  0
  1  2  1  0  0  0  0
  2  3  1  0  0  0  0
  2  4  1  0  0  0  0
  2  5  1  0  0  0  0
  5  6  1  0  0  0  0
  6  7  1  0  0  0  0
  6  8  2  0  0  0  0
  8  9  1  0  0  0  0
  8 10  1  0  0  0  0
 10 11  1  0  0  0  0
 10 12  2  0  0  0  0
 12 13  1  0  0  0  0
 12 14  1  0  0  0  0
 14  5  2  0  0  0  0
 14 15  1  0  0  0  0
M  END
> <ChemID>
101790

> <source_casrn>
402-44-8

> <CAS>
402-44-8

> <SMILES>
Fc1ccc(cc1)C(F)(F)F

> <NAME>
Benzene, 1-fluoro-4-(trifluoromethyl)-

> <preferred_name>
4-Fluorobenzotrifluoride

> <iupac>
1-Fluoro-4-(trifluoromethyl)benzene

> <MPID>
20836

> <dsstox_substance_id>
DTXSID5059951

> <Canonical_QSARr>
Fc1ccc(cc1)C(F)(F)F

> <InChI_Code_QSARr>
InChI=1S/C7H4F4/c8-6-3-1-5(2-4-6)7(9,10)11/h1-4H

> <InChI Key_QSARr>
UNNNAIWPDLRVRN-UHFFFAOYSA-N

> <Salt_Solvent>
?

> <BP>
103.5

$$$$
101794
  -INDIGO-08031720192D

 14 14  0  0  0  0  0  0  0  0999 V2000
    0.0001   -0.0000    0.0000 C   0  0  0  0  0  0  0  0  0  0  0  0
    0.8000   -1.3857    0.0000 C   0  0  0  0  0  0  0  0  0  0  0  0
    2.4000   -1.3857    0.0000 H   0  0  0  0  0  0  0  0  0  0  0  0
    0.0001   -2.7713    0.0000 C   0  0  0  0  0  0  0  0  0  0  0  0
    0.8000   -4.1569    0.0000 F   0  0  0  0  0  0  0  0  0  0  0  0
   -1.5999   -2.7713    0.0000 C   0  0  0  0  0  0  0  0  0  0  0  0
   -2.4000   -4.1569    0.0000 H   0  0  0  0  0  0  0  0  0  0  0  0
   -2.4000   -1.3856    0.0000 C   0  0  0  0  0  0  0  0  0  0  0  0
   -4.0000   -1.3856    0.0000 H   0  0  0  0  0  0  0  0  0  0  0  0
   -1.5999   -0.0000    0.0000 C   0  0  0  0  0  0  0  0  0  0  0  0
   -2.4000    1.3856    0.0000 H   0  0  0  0  0  0  0  0  0  0  0  0
    0.8000    1.3856    0.0000 N   0  0  0  0  0  0  0  0  0  0  0  0
    2.4000    1.3856    0.0000 C   0  0  0  0  0  0  0  0  0  0  0  0
    4.0000    1.3856    0.0000 S   0  0  0  0  0  0  0  0  0  0  0  0
  1  2  1  0  0  0  0
  2  3  1  0  0  0  0
  2  4  2  0  0  0  0
  4  5  1  0  0  0  0
  4  6  1  0  0  0  0
  6  7  1  0  0  0  0
  6  8  2  0  0  0  0
  8  9  1  0  0  0  0
  8 10  1  0  0  0  0
 10  1  2  0  0  0  0
 10 11  1  0  0  0  0
  1 12  1  0  0  0  0
 12 13  2  0  0  0  0
 13 14  2  0  0  0  0
M  END
> <ChemID>
101794

> <source_casrn>
404-72-8

> <CAS>
404-72-8

> <SMILES>
Fc1cc(ccc1)N=C=S

> <NAME>
Benzene, 1-fluoro-3-isothiocyanato-

> <preferred_name>
3-Fluorophenyl isothiocyanate

> <iupac>
1-fluoro-3-isothiocyanatobenzene

> <MPID>
20840

> <dsstox_substance_id>
DTXSID5059955

> <Canonical_QSARr>
Fc1cc(ccc1)N=C=S

> <InChI_Code_QSARr>
InChI=1S/C7H4FNS/c8-6-2-1-3-7(4-6)9-5-10/h1-4H

> <InChI Key_QSARr>
HDBACITVPQEAGG-UHFFFAOYSA-N

> <Salt_Solvent>
?

> <BP>
227.0

$$$$
101798
  -INDIGO-08031720192D

 13 12  0  0  0  0  0  0  0  0999 V2000
    1.3856   -0.8000    0.0000 C   0  0  0  0  0  0  0  0  0  0  0  0
    1.3856   -2.4000    0.0000 O   0  0  0  0  0  0  0  0  0  0  0  0
    2.7712    0.0000    0.0000 O   0  0  0  0  0  0  0  0  0  0  0  0
    4.1569   -0.8000    0.0000 C   0  0  0  0  0  0  0  0  0  0  0  0
    4.1569   -2.4000    0.0000 O   0  0  0  0  0  0  0  0  0  0  0  0
    5.5425    0.0000    0.0000 C   0  0  0  0  0  0  0  0  0  0  0  0
    6.9282    0.8000    0.0000 F   0  0  0  0  0  0  0  0  0  0  0  0
    6.9282   -0.8000    0.0000 F   0  0  0  0  0  0  0  0  0  0  0  0
    5.5425    1.6000    0.0000 F   0  0  0  0  0  0  0  0  0  0  0  0
   -0.0001    0.0000    0.0000 C   0  0  0  0  0  0  0  0  0  0  0  0
   -1.3856    0.8000    0.0000 F   0  0  0  0  0  0  0  0  0  0  0  0
   -0.0001    1.6000    0.0000 F   0  0  0  0  0  0  0  0  0  0  0  0
   -1.3856   -0.8000    0.0000 F   0  0  0  0  0  0  0  0  0  0  0  0
  1  2  2  0  0  0  0
  1  3  1  0  0  0  0
  3  4  1  0  0  0  0
  4  5  2  0  0  0  0
  4  6  1  0  0  0  0
  6  7  1  0  0  0  0
  6  8  1  0  0  0  0
  6  9  1  0  0  0  0
  1 10  1  0  0  0  0
 10 11  1  0  0  0  0
 10 12  1  0  0  0  0
 10 13  1  0  0  0  0
M  END
> <ChemID>
101798

> <source_casrn>
407-25-0

> <CAS>
NOCAS_861920

> <SMILES>
O=C(OC(=O)C(F)(F)F)C(F)(F)F

> <NAME>
TRIFLUOROACETIC ANHYDRIDE

> <preferred_name>


> <iupac>


> <MPID>
20844

> <dsstox_substance_id>
DTXSID90861920

> <Canonical_QSARr>
O=C(OC(=O)C(F)(F)F)C(F)(F)F

> <InChI_Code_QSARr>
InChI=1S/C4F6O3/c5-3(6,7)1(11)13-2(12)4(8,9)10

> <InChI Key_QSARr>
QAEDZJGFFMLHHQ-UHFFFAOYSA-N

> <Salt_Solvent>
?

> <BP>
39.5

$$$$
101802
  -INDIGO-08031720192D

  7  6  0  0  0  0  0  0  0  0999 V2000
    1.6000    0.0000    0.0000 As  0  0  0  0  0  0  0  0  0  0  0  0
    2.4000    1.3856    0.0000 F   0  0  0  0  0  0  0  0  0  0  0  0
    2.4000   -1.3856    0.0000 F   0  0  0  0  0  0  0  0  0  0  0  0
    0.0000    0.0000    0.0000 C   0  0  0  0  0  0  0  0  0  0  0  0
   -1.6000    0.0000    0.0000 H   0  0  0  0  0  0  0  0  0  0  0  0
   -0.8000    1.3856    0.0000 H   0  0  0  0  0  0  0  0  0  0  0  0
   -0.8000   -1.3856    0.0000 H   0  0  0  0  0  0  0  0  0  0  0  0
  1  2  1  0  0  0  0
  1  3  1  0  0  0  0
  1  4  1  0  0  0  0
  4  5  1  0  0  0  0
  4  6  1  0  0  0  0
  4  7  1  0  0  0  0
M  END
> <ChemID>
101802

> <source_casrn>
420-24-6

> <CAS>
420-24-6

> <SMILES>
C[As](F)F

> <NAME>
Difluoromethylarsine

> <preferred_name>
Arsine, difluoromethyl

> <iupac>
difluoro-methylarsane

> <MPID>
20848

> <dsstox_substance_id>
DTXSID10194808

> <Canonical_QSARr>
C[As](F)F

> <InChI_Code_QSARr>
InChI=1S/CH3AsF2/c1-2(3)4/h1H3

> <InChI Key_QSARr>
ZXGHMKKZOQXXKB-UHFFFAOYSA-N

> <Salt_Solvent>
?

> <BP>
76.5

$$$$
101806
  -INDIGO-08031720192D

  5  4  0  0  0  0  0  0  0  0999 V2000
   -0.8000   -1.3856    0.0000 I   0  0  0  0  0  0  0  0  0  0  0  0
    0.0000    0.0000    0.0000 C   0  0  0  0  0  0  0  0  0  0  0  0
    0.8000    1.3856    0.0000 Cl  0  0  0  0  0  0  0  0  0  0  0  0
   -1.3856    0.8000    0.0000 Cl  0  0  0  0  0  0  0  0  0  0  0  0
    1.3856   -0.8000    0.0000 F   0  0  0  0  0  0  0  0  0  0  0  0
  1  2  1  0  0  0  0
  2  3  1  0  0  0  0
  2  4  1  0  0  0  0
  2  5  1  0  0  0  0
M  END
> <ChemID>
101806

> <source_casrn>
420-48-4

> <CAS>
420-48-4

> <SMILES>
FC(Cl)(Cl)I

> <NAME>
Dichlorofluoroiodomethane

> <preferred_name>
PUBCHEM_23001916

> <iupac>
CCl2FI

> <MPID>
20852

> <dsstox_substance_id>
DTXSID00629513

> <Canonical_QSARr>
FC(Cl)(Cl)I

> <InChI_Code_QSARr>
InChI=1S/CCl2FI/c2-1(3,4)5

> <InChI Key_QSARr>
GOKDNAMGHVQFQQ-UHFFFAOYSA-N

> <Salt_Solvent>
?

> <BP>
90.0

$$$$
101810
  -INDIGO-08031720192D

  8  7  0  0  0  0  0  0  0  0999 V2000
    0.8000    1.3856    0.0000 F   0  0  0  0  0  0  0  0  0  0  0  0
    0.0000    0.0000    0.0000 C   0  0  0  0  0  0  0  0  0  0  0  0
    1.6000   -0.0000    0.0000 F   0  0  0  0  0  0  0  0  0  0  0  0
    0.8000   -1.3856    0.0000 Cl  0  0  0  0  0  0  0  0  0  0  0  0
   -1.6000    0.0000    0.0000 C   0  0  0  0  0  0  0  0  0  0  0  0
   -3.2000    0.0000    0.0000 H   0  0  0  0  0  0  0  0  0  0  0  0
   -2.4000   -1.3856    0.0000 H   0  0  0  0  0  0  0  0  0  0  0  0
   -2.4000    1.3856    0.0000 Br  0  0  0  0  0  0  0  0  0  0  0  0
  1  2  1  0  0  0  0
  2  3  1  0  0  0  0
  2  4  1  0  0  0  0
  2  5  1  0  0  0  0
  5  6  1  0  0  0  0
  5  7  1  0  0  0  0
  5  8  1  0  0  0  0
M  END
> <ChemID>
101810

> <source_casrn>
421-01-2

> <CAS>
421-01-2

> <SMILES>
FC(F)(Cl)CBr

> <NAME>
2-Bromo-1-chloro-1,1-difluoroethane

> <preferred_name>
2-Bromo-1-chloro-1,1-difluoroethane

> <iupac>
2-bromo-1-chloro-1,1-difluoroethane

> <MPID>
20856

> <dsstox_substance_id>
DTXSID6074255

> <Canonical_QSARr>
FC(F)(Cl)CBr

> <InChI_Code_QSARr>
InChI=1S/C2H2BrClF2/c3-1-2(4,5)6/h1H2

> <InChI Key_QSARr>
KORUNPLQGRLDSJ-UHFFFAOYSA-N

> <Salt_Solvent>
?

> <BP>
68.4

$$$$
101814
  -INDIGO-08031720192D

  8  7  0  0  0  0  0  0  0  0999 V2000
    0.0000    1.6000    0.0000 Cl  0  0  0  0  0  0  0  0  0  0  0  0
    0.0000    0.0000    0.0000 S   0  0  0  0  0  0  0  0  0  0  0  0
    1.6000   -0.0000    0.0000 O   0  0  0  0  0  0  0  0  0  0  0  0
    0.0000   -1.6000    0.0000 O   0  0  0  0  0  0  0  0  0  0  0  0
   -1.6000    0.0000    0.0000 C   0  0  0  0  0  0  0  0  0  0  0  0
   -3.2000    0.0000    0.0000 F   0  0  0  0  0  0  0  0  0  0  0  0
   -2.4000   -1.3856    0.0000 F   0  0  0  0  0  0  0  0  0  0  0  0
   -2.4000    1.3856    0.0000 F   0  0  0  0  0  0  0  0  0  0  0  0
  1  2  1  0  0  0  0
  2  3  2  0  0  0  0
  2  4  2  0  0  0  0
  2  5  1  0  0  0  0
  5  6  1  0  0  0  0
  5  7  1  0  0  0  0
  5  8  1  0  0  0  0
M  END
> <ChemID>
101814

> <source_casrn>
421-83-0

> <CAS>
421-83-0

> <SMILES>
O=S(=O)(Cl)C(F)(F)F

> <NAME>
Trifluoromethanesulfonyl chloride

> <preferred_name>
Trifluoromethanesulphonyl chloride

> <iupac>
Trifluoromethanesulfonyl chloride

> <MPID>
20860

> <dsstox_substance_id>
DTXSID50194943

> <Canonical_QSARr>
O=S(=O)(Cl)C(F)(F)F

> <InChI_Code_QSARr>
InChI=1S/CClF3O2S/c2-8(6,7)1(3,4)5

> <InChI Key_QSARr>
GRGCWBWNLSTIEN-UHFFFAOYSA-N

> <Salt_Solvent>
?

> <BP>
30.5

$$$$
101818
  -INDIGO-08031720192D

 11 10  0  0  0  0  0  0  0  0999 V2000
    1.3856    2.4000    0.0000 O   0  0  0  0  0  0  0  0  0  0  0  0
    1.3856    0.8000    0.0000 C   0  0  0  0  0  0  0  0  0  0  0  0
    2.7713    0.0000    0.0000 O   0  0  0  0  0  0  0  0  0  0  0  0
    4.1569    0.8000    0.0000 H   0  0  0  0  0  0  0  0  0  0  0  0
    0.0000    0.0000    0.0000 C   0  0  0  0  0  0  0  0  0  0  0  0
   -0.6123   -1.4782    0.0000 F   0  0  0  0  0  0  0  0  0  0  0  0
    0.6123   -1.4782    0.0000 F   0  0  0  0  0  0  0  0  0  0  0  0
   -1.3856    0.8000    0.0000 C   0  0  0  0  0  0  0  0  0  0  0  0
   -2.7713    1.6000    0.0000 F   0  0  0  0  0  0  0  0  0  0  0  0
   -2.7713    0.0000    0.0000 F   0  0  0  0  0  0  0  0  0  0  0  0
   -1.3856    2.4000    0.0000 F   0  0  0  0  0  0  0  0  0  0  0  0
  1  2  2  0  0  0  0
  2  3  1  0  0  0  0
  3  4  1  0  0  0  0
  2  5  1  0  0  0  0
  5  6  1  0  0  0  0
  5  7  1  0  0  0  0
  5  8  1  0  0  0  0
  8  9  1  0  0  0  0
  8 10  1  0  0  0  0
  8 11  1  0  0  0  0
M  END
> <ChemID>
101818

> <source_casrn>
422-64-0

> <CAS>
422-64-0

> <SMILES>
OC(=O)C(F)(F)C(F)(F)F

> <NAME>
Propanoic acid, pentafluoro-

> <preferred_name>
Pentafluoropropionic acid

> <iupac>
2,2,3,3,3-pentafluoropropanoic acid

> <MPID>
20864

> <dsstox_substance_id>
DTXSID8059970

> <Canonical_QSARr>
OC(=O)C(F)(F)C(F)(F)F

> <InChI_Code_QSARr>
InChI=1S/C3HF5O2/c4-2(5,1(9)10)3(6,7)8/h(H,9,10)

> <InChI Key_QSARr>
LRMSQVBRUNSOJL-UHFFFAOYSA-N

> <Salt_Solvent>
?

> <BP>
96.5

$$$$
101823
  -INDIGO-08031720192D

 39 38  0  0  0  0  0  0  0  0999 V2000
   -0.6124   -1.4782    0.0000 F   0  0  0  0  0  0  0  0  0  0  0  0
    0.0001    0.0000    0.0000 C   0  0  0  0  0  0  0  0  0  0  0  0
    0.6122   -1.4782    0.0000 F   0  0  0  0  0  0  0  0  0  0  0  0
   -1.3855    0.8000    0.0000 C   0  0  0  0  0  0  0  0  0  0  0  0
   -1.9980    2.2782    0.0000 F   0  0  0  0  0  0  0  0  0  0  0  0
   -0.7734    2.2782    0.0000 F   0  0  0  0  0  0  0  0  0  0  0  0
   -2.7712    0.0000    0.0000 C   0  0  0  0  0  0  0  0  0  0  0  0
   -2.1590   -1.4782    0.0000 F   0  0  0  0  0  0  0  0  0  0  0  0
   -3.3836   -1.4782    0.0000 F   0  0  0  0  0  0  0  0  0  0  0  0
   -4.1568    0.8000    0.0000 O   0  0  0  0  0  0  0  0  0  0  0  0
   -5.5427    0.0000    0.0000 C   0  0  0  0  0  0  0  0  0  0  0  0
   -4.9302   -1.4782    0.0000 F   0  0  0  0  0  0  0  0  0  0  0  0
   -6.1548   -1.4782    0.0000 F   0  0  0  0  0  0  0  0  0  0  0  0
   -6.9283    0.8000    0.0000 C   0  0  0  0  0  0  0  0  0  0  0  0
   -7.5405    2.2782    0.0000 F   0  0  0  0  0  0  0  0  0  0  0  0
   -6.3159    2.2782    0.0000 F   0  0  0  0  0  0  0  0  0  0  0  0
   -8.3139    0.0000    0.0000 C   0  0  0  0  0  0  0  0  0  0  0  0
   -7.7015   -1.4782    0.0000 F   0  0  0  0  0  0  0  0  0  0  0  0
   -8.9261   -1.4782    0.0000 F   0  0  0  0  0  0  0  0  0  0  0  0
   -9.6995    0.8000    0.0000 C   0  0  0  0  0  0  0  0  0  0  0  0
  -10.3117    2.2782    0.0000 F   0  0  0  0  0  0  0  0  0  0  0  0
   -9.0871    2.2782    0.0000 F   0  0  0  0  0  0  0  0  0  0  0  0
  -11.0852    0.0000    0.0000 C   0  0  0  0  0  0  0  0  0  0  0  0
  -10.4727   -1.4782    0.0000 F   0  0  0  0  0  0  0  0  0  0  0  0
  -11.6973   -1.4782    0.0000 F   0  0  0  0  0  0  0  0  0  0  0  0
  -12.4708    0.8000    0.0000 C   0  0  0  0  0  0  0  0  0  0  0  0
  -13.8564    1.6000    0.0000 F   0  0  0  0  0  0  0  0  0  0  0  0
  -13.8564    0.0000    0.0000 F   0  0  0  0  0  0  0  0  0  0  0  0
  -12.4708    2.4000    0.0000 F   0  0  0  0  0  0  0  0  0  0  0  0
    1.3857    0.8000    0.0000 C   0  0  0  0  0  0  0  0  0  0  0  0
    0.7733    2.2782    0.0000 F   0  0  0  0  0  0  0  0  0  0  0  0
    1.9979    2.2782    0.0000 F   0  0  0  0  0  0  0  0  0  0  0  0
    2.7713    0.0000    0.0000 C   0  0  0  0  0  0  0  0  0  0  0  0
    3.3835   -1.4782    0.0000 F   0  0  0  0  0  0  0  0  0  0  0  0
    2.1589   -1.4782    0.0000 F   0  0  0  0  0  0  0  0  0  0  0  0
    4.1569    0.8000    0.0000 C   0  0  0  0  0  0  0  0  0  0  0  0
    5.5426    1.6000    0.0000 F   0  0  0  0  0  0  0  0  0  0  0  0
    5.5426    0.0000    0.0000 F   0  0  0  0  0  0  0  0  0  0  0  0
    4.1569    2.4000    0.0000 F   0  0  0  0  0  0  0  0  0  0  0  0
  1  2  1  0  0  0  0
  2  3  1  0  0  0  0
  2  4  1  0  0  0  0
  4  5  1  0  0  0  0
  4  6  1  0  0  0  0
  4  7  1  0  0  0  0
  7  8  1  0  0  0  0
  7  9  1  0  0  0  0
  7 10  1  0  0  0  0
 10 11  1  0  0  0  0
 11 12  1  0  0  0  0
 11 13  1  0  0  0  0
 11 14  1  0  0  0  0
 14 15  1  0  0  0  0
 14 16  1  0  0  0  0
 14 17  1  0  0  0  0
 17 18  1  0  0  0  0
 17 19  1  0  0  0  0
 17 20  1  0  0  0  0
 20 21  1  0  0  0  0
 20 22  1  0  0  0  0
 20 23  1  0  0  0  0
 23 24  1  0  0  0  0
 23 25  1  0  0  0  0
 23 26  1  0  0  0  0
 26 27  1  0  0  0  0
 26 28  1  0  0  0  0
 26 29  1  0  0  0  0
  2 30  1  0  0  0  0
 30 31  1  0  0  0  0
 30 32  1  0  0  0  0
 30 33  1  0  0  0  0
 33 34  1  0  0  0  0
 33 35  1  0  0  0  0
 33 36  1  0  0  0  0
 36 37  1  0  0  0  0
 36 38  1  0  0  0  0
 36 39  1  0  0  0  0
M  END
> <ChemID>
101823

> <source_casrn>
424-20-4

> <CAS>
424-20-4

> <SMILES>
FC(F)(F)C(F)(F)C(F)(F)C(F)(F)C(F)(F)C(F)(F)OC(F)(F)C(F)(F)C(F)(F)C(F)(F)C(F)(F)C(F)(F)F

> <NAME>
Perfluorohexyl ether

> <preferred_name>
1,1,1,2,2,3,3,4,4,5,5,6,6-tridecafluoro-6-[(tridecafluorohexyl)oxy]hexane

> <iupac>
C12F26O

> <MPID>
20868

> <dsstox_substance_id>
DTXSID10291866

> <Canonical_QSARr>
FC(F)(F)C(F)(F)C(F)(F)C(F)(F)C(F)(F)C(F)(F)OC(F)(F)C(F)(F)C(F)(F)C(F)(F)C(F)(F)C(F)(F)F

> <InChI_Code_QSARr>
InChI=1S/C12F26O/c13-1(14,5(21,22)9(29,30)31)3(17,18)7(25,26)11(35,36)39-12(37,38)8(27,28)4(19,20)2(15,16)6(23,24)10(32,33)34

> <InChI Key_QSARr>
SZSAPIBCGOJGHD-UHFFFAOYSA-N

> <Salt_Solvent>
?

> <BP>
181.0

$$$$
101828
  -INDIGO-08031720192D

  8  7  0  0  0  0  0  0  0  0999 V2000
    0.0000    0.0000    0.0000 C   0  0  0  0  0  0  0  0  0  0  0  0
    1.6000   -0.0000    0.0000 H   0  0  0  0  0  0  0  0  0  0  0  0
   -1.6000    0.0000    0.0000 C   0  0  0  0  0  0  0  0  0  0  0  0
   -3.2000    0.0000    0.0000 H   0  0  0  0  0  0  0  0  0  0  0  0
   -2.4000   -1.3856    0.0000 H   0  0  0  0  0  0  0  0  0  0  0  0
   -2.4000    1.3856    0.0000 Cl  0  0  0  0  0  0  0  0  0  0  0  0
    0.8000   -1.3856    0.0000 Cl  0  0  0  0  0  0  0  0  0  0  0  0
    0.8000    1.3856    0.0000 F   0  0  0  0  0  0  0  0  0  0  0  0
  1  2  1  0  0  0  0
  1  3  1  0  0  0  0
  3  4  1  0  0  0  0
  3  5  1  0  0  0  0
  3  6  1  0  0  0  0
  1  7  1  0  0  0  0
  1  8  1  0  0  0  0
M  END
> <ChemID>
101828

> <source_casrn>
430-57-9

> <CAS>
NOCAS_861926

> <SMILES>
FC(Cl)CCl

> <NAME>
ETHANE, 1,2-DICHLORO-1-FLUORO-

> <preferred_name>


> <iupac>


> <MPID>
20872

> <dsstox_substance_id>
DTXSID50861926

> <Canonical_QSARr>
FC(Cl)CCl

> <InChI_Code_QSARr>
InChI=1S/C2H3Cl2F/c3-1-2(4)5/h2H,1H2

> <InChI Key_QSARr>
NDKGUMMLYBINOC-UHFFFAOYSA-N

> <Salt_Solvent>
?

> <BP>
73.7

$$$$
101832
  -INDIGO-08031720192D

 12 11  0  0  0  0  0  0  0  0999 V2000
    1.3856   -0.8000    0.0000 C   0  0  0  0  0  0  0  0  0  0  0  0
    2.7713   -1.6000    0.0000 H   0  0  0  0  0  0  0  0  0  0  0  0
    2.7713    0.0000    0.0000 H   0  0  0  0  0  0  0  0  0  0  0  0
    1.3856   -2.4000    0.0000 H   0  0  0  0  0  0  0  0  0  0  0  0
    0.0000    0.0000    0.0000 C   0  0  0  0  0  0  0  0  0  0  0  0
   -1.3856   -0.8000    0.0000 C   0  0  0  0  0  0  0  0  0  0  0  0
   -2.7713    0.0000    0.0000 C   0  0  0  0  0  0  0  0  0  0  0  0
   -4.1569    0.8000    0.0000 H   0  0  0  0  0  0  0  0  0  0  0  0
   -4.1569   -0.8000    0.0000 H   0  0  0  0  0  0  0  0  0  0  0  0
   -2.7713    1.6000    0.0000 H   0  0  0  0  0  0  0  0  0  0  0  0
   -1.3856   -2.4000    0.0000 O   0  0  0  0  0  0  0  0  0  0  0  0
    0.0000    1.6000    0.0000 O   0  0  0  0  0  0  0  0  0  0  0  0
  1  2  1  0  0  0  0
  1  3  1  0  0  0  0
  1  4  1  0  0  0  0
  1  5  1  0  0  0  0
  5  6  1  0  0  0  0
  6  7  1  0  0  0  0
  7  8  1  0  0  0  0
  7  9  1  0  0  0  0
  7 10  1  0  0  0  0
  6 11  2  0  0  0  0
  5 12  2  0  0  0  0
M  END
> <ChemID>
101832

> <source_casrn>
431-03-8

> <CAS>
431-03-8

> <SMILES>
CC(=O)C(C)=O

> <NAME>
2,3-BUTANEDIONE

> <preferred_name>
2,3-Butanedione

> <iupac>
butane-2,3-dione

> <MPID>
20876

> <dsstox_substance_id>
DTXSID6021583

> <Canonical_QSARr>
CC(=O)C(C)=O

> <InChI_Code_QSARr>
InChI=1S/C4H6O2/c1-3(5)4(2)6/h1-2H3

> <InChI Key_QSARr>
QSJXEFYPDANLFS-UHFFFAOYSA-N

> <Salt_Solvent>
?

> <BP>
88.0

$$$$
101836
  -INDIGO-08031720192D

 11 10  0  0  0  0  0  0  0  0999 V2000
    0.0000    0.0000    0.0000 C   0  0  0  0  0  0  0  0  0  0  0  0
    1.3856   -0.8000    0.0000 C   0  0  0  0  0  0  0  0  0  0  0  0
    2.7713    0.0000    0.0000 O   0  0  0  0  0  0  0  0  0  0  0  0
    4.1569   -0.8000    0.0000 C   0  0  0  0  0  0  0  0  0  0  0  0
    5.5426   -1.6000    0.0000 H   0  0  0  0  0  0  0  0  0  0  0  0
    5.5426    0.0000    0.0000 H   0  0  0  0  0  0  0  0  0  0  0  0
    4.1569   -2.4000    0.0000 H   0  0  0  0  0  0  0  0  0  0  0  0
    1.3856   -2.4000    0.0000 O   0  0  0  0  0  0  0  0  0  0  0  0
   -1.3856    0.8000    0.0000 F   0  0  0  0  0  0  0  0  0  0  0  0
    0.0000    1.6000    0.0000 F   0  0  0  0  0  0  0  0  0  0  0  0
   -1.3856   -0.8000    0.0000 F   0  0  0  0  0  0  0  0  0  0  0  0
  1  2  1  0  0  0  0
  2  3  1  0  0  0  0
  3  4  1  0  0  0  0
  4  5  1  0  0  0  0
  4  6  1  0  0  0  0
  4  7  1  0  0  0  0
  2  8  2  0  0  0  0
  1  9  1  0  0  0  0
  1 10  1  0  0  0  0
  1 11  1  0  0  0  0
M  END
> <ChemID>
101836

> <source_casrn>
431-47-0

> <CAS>
431-47-0

> <SMILES>
COC(=O)C(F)(F)F

> <NAME>
METHYLTRIFLUOROACETATE

> <preferred_name>
Acetic acid, trifluoro-, methyl ester

> <iupac>
methyl 2,2,2-trifluoroacetate

> <MPID>
20880

> <dsstox_substance_id>
DTXSID2059988

> <Canonical_QSARr>
COC(=O)C(F)(F)F

> <InChI_Code_QSARr>
InChI=1S/C3H3F3O2/c1-8-2(7)3(4,5)6/h1H3

> <InChI Key_QSARr>
VMVNZNXAVJHNDJ-UHFFFAOYSA-N

> <Salt_Solvent>
?

> <BP>
43.25

$$$$
101841
  -INDIGO-08031720192D

 11 10  0  0  0  0  0  0  0  0999 V2000
   -1.3856    0.8000    0.0000 C   0  0  0  0  0  0  0  0  0  0  0  0
    0.0000    0.0000    0.0000 C   0  0  0  0  0  0  0  0  0  0  0  0
   -0.6123   -1.4782    0.0000 H   0  0  0  0  0  0  0  0  0  0  0  0
    1.3856    0.8000    0.0000 C   0  0  0  0  0  0  0  0  0  0  0  0
    2.7713    1.6000    0.0000 F   0  0  0  0  0  0  0  0  0  0  0  0
    2.7713    0.0000    0.0000 F   0  0  0  0  0  0  0  0  0  0  0  0
    1.3856    2.4000    0.0000 F   0  0  0  0  0  0  0  0  0  0  0  0
    0.6123   -1.4782    0.0000 F   0  0  0  0  0  0  0  0  0  0  0  0
   -2.7713    1.6000    0.0000 F   0  0  0  0  0  0  0  0  0  0  0  0
   -2.7713    0.0000    0.0000 F   0  0  0  0  0  0  0  0  0  0  0  0
   -1.3856    2.4000    0.0000 F   0  0  0  0  0  0  0  0  0  0  0  0
  1  2  1  0  0  0  0
  2  3  1  0  0  0  0
  2  4  1  0  0  0  0
  4  5  1  0  0  0  0
  4  6  1  0  0  0  0
  4  7  1  0  0  0  0
  2  8  1  0  0  0  0
  1  9  1  0  0  0  0
  1 10  1  0  0  0  0
  1 11  1  0  0  0  0
M  END
> <ChemID>
101841

> <source_casrn>
431-89-0

> <CAS>
431-89-0

> <SMILES>
FC(C(F)(F)F)C(F)(F)F

> <NAME>
HFC-227ea (heptafluoropropane)

> <preferred_name>
1,1,1,2,3,3,3-heptafluoropropane

> <iupac>
1,1,1,2,3,3,3-heptafluoropropane

> <MPID>
20884

> <dsstox_substance_id>
DTXSID4042048

> <Canonical_QSARr>
FC(C(F)(F)F)C(F)(F)F

> <InChI_Code_QSARr>
InChI=1S/C3HF7/c4-1(2(5,6)7)3(8,9)10/h1H

> <InChI Key_QSARr>
YFMFNYKEUDLDTL-UHFFFAOYSA-N

> <Salt_Solvent>
?

> <BP>
-17.3

$$$$
101845
  -INDIGO-08031720192D

 15 15  0  0  0  0  0  0  0  0999 V2000
    0.0000   -0.0000    0.0000 C   0  0  0  0  0  0  0  0  0  0  0  0
   -0.8001    1.3856    0.0000 C   0  0  0  0  0  0  0  0  0  0  0  0
    0.0000    2.7713    0.0000 F   0  0  0  0  0  0  0  0  0  0  0  0
   -2.4001    1.3856    0.0000 C   0  0  0  0  0  0  0  0  0  0  0  0
   -3.2000    2.7713    0.0000 F   0  0  0  0  0  0  0  0  0  0  0  0
   -3.2000   -0.0000    0.0000 C   0  0  0  0  0  0  0  0  0  0  0  0
   -4.8000   -0.0000    0.0000 F   0  0  0  0  0  0  0  0  0  0  0  0
   -2.4001   -1.3856    0.0000 C   0  0  0  0  0  0  0  0  0  0  0  0
   -3.2000   -2.7713    0.0000 F   0  0  0  0  0  0  0  0  0  0  0  0
   -0.8001   -1.3856    0.0000 C   0  0  0  0  0  0  0  0  0  0  0  0
    0.0000   -2.7713    0.0000 F   0  0  0  0  0  0  0  0  0  0  0  0
    1.6000   -0.0000    0.0000 C   0  0  0  0  0  0  0  0  0  0  0  0
    3.2000   -0.0000    0.0000 F   0  0  0  0  0  0  0  0  0  0  0  0
    2.4001   -1.3856    0.0000 F   0  0  0  0  0  0  0  0  0  0  0  0
    2.4001    1.3856    0.0000 F   0  0  0  0  0  0  0  0  0  0  0  0
  1  2  1  0  0  0  0
  2  3  1  0  0  0  0
  2  4  2  0  0  0  0
  4  5  1  0  0  0  0
  4  6  1  0  0  0  0
  6  7  1  0  0  0  0
  6  8  2  0  0  0  0
  8  9  1  0  0  0  0
  8 10  1  0  0  0  0
 10  1  2  0  0  0  0
 10 11  1  0  0  0  0
  1 12  1  0  0  0  0
 12 13  1  0  0  0  0
 12 14  1  0  0  0  0
 12 15  1  0  0  0  0
M  END
> <ChemID>
101845

> <source_casrn>
434-64-0

> <CAS>
434-64-0

> <SMILES>
Fc1c(F)c(F)c(c(F)c1F)C(F)(F)F

> <NAME>
OCTAFLUOROTOLUENE

> <preferred_name>
Octafluorotoluene

> <iupac>
1,2,3,4,5-pentafluoro-6-(trifluoromethyl)benzene

> <MPID>
20888

> <dsstox_substance_id>
DTXSID1059993

> <Canonical_QSARr>
Fc1c(F)c(F)c(c(F)c1F)C(F)(F)F

> <InChI_Code_QSARr>
InChI=1S/C7F8/c8-2-1(7(13,14)15)3(9)5(11)6(12)4(2)10

> <InChI Key_QSARr>
USPWUOFNOTUBAD-UHFFFAOYSA-N

> <Salt_Solvent>
?

> <BP>
104.5

$$$$
101849
  -INDIGO-08031720192D

 16 16  0  0  0  0  0  0  0  0999 V2000
    1.3856    2.4000    0.0000 O   0  0  0  0  0  0  0  0  0  0  0  0
    1.3856    4.0000    0.0000 H   0  0  0  0  0  0  0  0  0  0  0  0
    0.0000    1.6000    0.0000 C   0  0  0  0  0  0  0  0  0  0  0  0
   -1.3856    2.4000    0.0000 C   0  0  0  0  0  0  0  0  0  0  0  0
   -1.3856    4.0000    0.0000 H   0  0  0  0  0  0  0  0  0  0  0  0
   -2.7713    1.6000    0.0000 C   0  0  0  0  0  0  0  0  0  0  0  0
   -4.1569    2.4000    0.0000 H   0  0  0  0  0  0  0  0  0  0  0  0
   -2.7713    0.0000    0.0000 C   0  0  0  0  0  0  0  0  0  0  0  0
   -4.1569   -0.8000    0.0000 H   0  0  0  0  0  0  0  0  0  0  0  0
   -1.3856   -0.8000    0.0000 C   0  0  0  0  0  0  0  0  0  0  0  0
   -1.3856   -2.4000    0.0000 H   0  0  0  0  0  0  0  0  0  0  0  0
    0.0000    0.0000    0.0000 C   0  0  0  0  0  0  0  0  0  0  0  0
    1.3856   -0.8000    0.0000 C   0  0  0  0  0  0  0  0  0  0  0  0
    2.7713   -1.6000    0.0000 F   0  0  0  0  0  0  0  0  0  0  0  0
    1.3856   -2.4000    0.0000 F   0  0  0  0  0  0  0  0  0  0  0  0
    2.7713    0.0000    0.0000 F   0  0  0  0  0  0  0  0  0  0  0  0
  1  2  1  0  0  0  0
  1  3  1  0  0  0  0
  3  4  1  0  0  0  0
  4  5  1  0  0  0  0
  4  6  2  0  0  0  0
  6  7  1  0  0  0  0
  6  8  1  0  0  0  0
  8  9  1  0  0  0  0
  8 10  2  0  0  0  0
 10 11  1  0  0  0  0
 10 12  1  0  0  0  0
 12  3  2  0  0  0  0
 12 13  1  0  0  0  0
 13 14  1  0  0  0  0
 13 15  1  0  0  0  0
 13 16  1  0  0  0  0
M  END
> <ChemID>
101849

> <source_casrn>
444-30-4

> <CAS>
444-30-4

> <SMILES>
Oc1ccccc1C(F)(F)F

> <NAME>
O-TRIFLUOROMETHYLPHENOL

> <preferred_name>
2-(Trifluoromethyl)phenol

> <iupac>
2-(Trifluoromethyl)phenol

> <MPID>
20892

> <dsstox_substance_id>
DTXSID0074849

> <Canonical_QSARr>
Oc1ccccc1C(F)(F)F

> <InChI_Code_QSARr>
InChI=1S/C7H5F3O/c8-7(9,10)5-3-1-2-4-6(5)11/h1-4,11H

> <InChI Key_QSARr>
ZOQOPXVJANRGJZ-UHFFFAOYSA-N

> <Salt_Solvent>
?

> <BP>
147.5

$$$$
101853
  -INDIGO-08031720192D

 20 21  0  0  0  0  0  0  0  0999 V2000
    1.3857   -0.8000    0.0000 C   0  0  0  0  0  0  0  0  0  0  0  0
    2.7713   -0.0000    0.0000 C   0  0  0  0  0  0  0  0  0  0  0  0
    2.7713    1.6000    0.0000 H   0  0  0  0  0  0  0  0  0  0  0  0
    4.1570   -0.8000    0.0000 C   0  0  0  0  0  0  0  0  0  0  0  0
    5.5426   -0.0000    0.0000 H   0  0  0  0  0  0  0  0  0  0  0  0
    4.1570   -2.4000    0.0000 C   0  0  0  0  0  0  0  0  0  0  0  0
    5.5426   -3.2000    0.0000 H   0  0  0  0  0  0  0  0  0  0  0  0
    2.7713   -3.2000    0.0000 C   0  0  0  0  0  0  0  0  0  0  0  0
    2.7713   -4.8000    0.0000 H   0  0  0  0  0  0  0  0  0  0  0  0
    1.3857   -2.4000    0.0000 C   0  0  0  0  0  0  0  0  0  0  0  0
   -0.0001   -3.2000    0.0000 C   0  0  0  0  0  0  0  0  0  0  0  0
   -0.0001   -4.8000    0.0000 H   0  0  0  0  0  0  0  0  0  0  0  0
   -1.3856   -2.4000    0.0000 C   0  0  0  0  0  0  0  0  0  0  0  0
   -2.7712   -3.2000    0.0000 H   0  0  0  0  0  0  0  0  0  0  0  0
   -1.3856   -0.8000    0.0000 C   0  0  0  0  0  0  0  0  0  0  0  0
   -2.9613   -1.0779    0.0000 H   0  0  0  0  0  0  0  0  0  0  0  0
   -1.9328    0.7035    0.0000 H   0  0  0  0  0  0  0  0  0  0  0  0
   -0.0001   -0.0000    0.0000 C   0  0  0  0  0  0  0  0  0  0  0  0
   -1.0284    1.2257    0.0000 H   0  0  0  0  0  0  0  0  0  0  0  0
    1.0284    1.2257    0.0000 H   0  0  0  0  0  0  0  0  0  0  0  0
  1  2  1  0  0  0  0
  2  3  1  0  0  0  0
  2  4  2  0  0  0  0
  4  5  1  0  0  0  0
  4  6  1  0  0  0  0
  6  7  1  0  0  0  0
  6  8  2  0  0  0  0
  8  9  1  0  0  0  0
  8 10  1  0  0  0  0
 10  1  2  0  0  0  0
 10 11  1  0  0  0  0
 11 12  1  0  0  0  0
 11 13  2  0  0  0  0
 13 14  1  0  0  0  0
 13 15  1  0  0  0  0
 15 16  1  0  0  0  0
 15 17  1  0  0  0  0
 15 18  1  0  0  0  0
 18  1  1  0  0  0  0
 18 19  1  0  0  0  0
 18 20  1  0  0  0  0
M  END
> <ChemID>
101853

> <source_casrn>
447-53-0

> <CAS>
447-53-0

> <SMILES>
C1CC=Cc2ccccc21

> <NAME>
1,2-DIHYDRONAPHTHALENE

> <preferred_name>
1,2-Dihydronaphthalene

> <iupac>
C10H10

> <MPID>
20896

> <dsstox_substance_id>
DTXSID30858713

> <Canonical_QSARr>
C1CC=Cc2ccccc21

> <InChI_Code_QSARr>
InChI=1S/C10H10/c1-2-6-10-8-4-3-7-9(10)5-1/h1-3,5-7H,4,8H2

> <InChI Key_QSARr>
KEIFWROAQVVDBN-UHFFFAOYSA-N

> <Salt_Solvent>
?

> <BP>
206.5

$$$$
101857
  -INDIGO-08031720192D

 19 19  0  0  0  0  0  0  0  0999 V2000
   -3.2000    0.0000    0.0000 C   0  0  0  0  0  0  0  0  0  0  0  0
   -2.4000   -1.3856    0.0000 C   0  0  0  0  0  0  0  0  0  0  0  0
   -0.8000   -1.3856    0.0000 O   0  0  0  0  0  0  0  0  0  0  0  0
   -0.0001    0.0000    0.0000 C   0  0  0  0  0  0  0  0  0  0  0  0
   -0.2089    1.5863    0.0000 H   0  0  0  0  0  0  0  0  0  0  0  0
   -1.2693    0.9740    0.0000 H   0  0  0  0  0  0  0  0  0  0  0  0
    1.6000    0.0000    0.0000 C   0  0  0  0  0  0  0  0  0  0  0  0
    3.2000    0.0000    0.0000 H   0  0  0  0  0  0  0  0  0  0  0  0
    2.4000    1.3856    0.0000 H   0  0  0  0  0  0  0  0  0  0  0  0
    2.4000   -1.3856    0.0000 H   0  0  0  0  0  0  0  0  0  0  0  0
   -3.2000   -2.7713    0.0000 C   0  0  0  0  0  0  0  0  0  0  0  0
   -2.4000   -4.1569    0.0000 H   0  0  0  0  0  0  0  0  0  0  0  0
   -4.8001   -2.7713    0.0000 C   0  0  0  0  0  0  0  0  0  0  0  0
   -5.6000   -4.1569    0.0000 H   0  0  0  0  0  0  0  0  0  0  0  0
   -5.6000   -1.3856    0.0000 C   0  0  0  0  0  0  0  0  0  0  0  0
   -7.2000   -1.3856    0.0000 H   0  0  0  0  0  0  0  0  0  0  0  0
   -4.8001    0.0000    0.0000 C   0  0  0  0  0  0  0  0  0  0  0  0
   -5.6000    1.3856    0.0000 H   0  0  0  0  0  0  0  0  0  0  0  0
   -2.4000    1.3856    0.0000 F   0  0  0  0  0  0  0  0  0  0  0  0
  1  2  1  0  0  0  0
  2  3  1  0  0  0  0
  3  4  1  0  0  0  0
  4  5  1  0  0  0  0
  4  6  1  0  0  0  0
  4  7  1  0  0  0  0
  7  8  1  0  0  0  0
  7  9  1  0  0  0  0
  7 10  1  0  0  0  0
  2 11  2  0  0  0  0
 11 12  1  0  0  0  0
 11 13  1  0  0  0  0
 13 14  1  0  0  0  0
 13 15  2  0  0  0  0
 15 16  1  0  0  0  0
 15 17  1  0  0  0  0
 17  1  2  0  0  0  0
 17 18  1  0  0  0  0
  1 19  1  0  0  0  0
M  END
> <ChemID>
101857

> <source_casrn>
451-80-9

> <CAS>
451-80-9

> <SMILES>
CCOc1ccccc1F

> <NAME>
BENZENE, 1-ETHOXY-2-FLUORO-

> <preferred_name>
o-Fluorophenatole

> <iupac>
1-ethoxy-2-fluorobenzene

> <MPID>
20900

> <dsstox_substance_id>
DTXSID7075345

> <Canonical_QSARr>
CCOc1ccccc1F

> <InChI_Code_QSARr>
InChI=1S/C8H9FO/c1-2-10-8-6-4-3-5-7(8)9/h3-6H,2H2,1H3

> <InChI Key_QSARr>
SQSJADMOVKSAQY-UHFFFAOYSA-N

> <Salt_Solvent>
?

> <BP>
171.4

$$$$
101861
  -INDIGO-08031720192D

 14 13  0  0  0  0  0  0  0  0999 V2000
   -2.7713    0.0000    0.0000 C   0  0  0  0  0  0  0  0  0  0  0  0
   -1.3857    0.8000    0.0000 O   0  0  0  0  0  0  0  0  0  0  0  0
    0.0000    0.0000    0.0000 C   0  0  0  0  0  0  0  0  0  0  0  0
    0.6122   -1.4782    0.0000 H   0  0  0  0  0  0  0  0  0  0  0  0
   -0.6122   -1.4782    0.0000 H   0  0  0  0  0  0  0  0  0  0  0  0
    1.3856    0.8000    0.0000 C   0  0  0  0  0  0  0  0  0  0  0  0
    2.7713    1.6000    0.0000 H   0  0  0  0  0  0  0  0  0  0  0  0
    2.7713    0.0000    0.0000 H   0  0  0  0  0  0  0  0  0  0  0  0
    1.3856    2.4000    0.0000 H   0  0  0  0  0  0  0  0  0  0  0  0
   -4.1569    0.8000    0.0000 C   0  0  0  0  0  0  0  0  0  0  0  0
   -5.5426    1.6000    0.0000 H   0  0  0  0  0  0  0  0  0  0  0  0
   -5.5426    0.0000    0.0000 F   0  0  0  0  0  0  0  0  0  0  0  0
   -4.1569    2.4000    0.0000 F   0  0  0  0  0  0  0  0  0  0  0  0
   -2.7713   -1.6000    0.0000 O   0  0  0  0  0  0  0  0  0  0  0  0
  1  2  1  0  0  0  0
  2  3  1  0  0  0  0
  3  4  1  0  0  0  0
  3  5  1  0  0  0  0
  3  6  1  0  0  0  0
  6  7  1  0  0  0  0
  6  8  1  0  0  0  0
  6  9  1  0  0  0  0
  1 10  1  0  0  0  0
 10 11  1  0  0  0  0
 10 12  1  0  0  0  0
 10 13  1  0  0  0  0
  1 14  2  0  0  0  0
M  END
> <ChemID>
101861

> <source_casrn>
454-31-9

> <CAS>
454-31-9

> <SMILES>
CCOC(=O)C(F)F

> <NAME>
ACETIC ACID, DIFLUORO-, ETHYL ESTER

> <preferred_name>
Acetic acid, difluoro-, ethyl ester

> <iupac>
ethyl 2,2-difluoroacetate

> <MPID>
20904

> <dsstox_substance_id>
DTXSID0060010

> <Canonical_QSARr>
CCOC(=O)C(F)F

> <InChI_Code_QSARr>
InChI=1S/C4H6F2O2/c1-2-8-4(7)3(5)6/h3H,2H2,1H3

> <InChI Key_QSARr>
GZKHDVAKKLTJPO-UHFFFAOYSA-N

> <Salt_Solvent>
?

> <BP>
100.0

$$$$
101865
  -INDIGO-08031720192D

 14 14  0  0  0  0  0  0  0  0999 V2000
    2.4000   -1.3856    0.0000 O   0  0  0  0  0  0  0  0  0  0  0  0
    1.6000   -0.0000    0.0000 C   0  0  0  0  0  0  0  0  0  0  0  0
    2.4000    1.3856    0.0000 H   0  0  0  0  0  0  0  0  0  0  0  0
    0.0000   -0.0000    0.0000 C   0  0  0  0  0  0  0  0  0  0  0  0
   -0.8000    1.3856    0.0000 C   0  0  0  0  0  0  0  0  0  0  0  0
    0.0000    2.7713    0.0000 H   0  0  0  0  0  0  0  0  0  0  0  0
   -2.4000    1.3856    0.0000 C   0  0  0  0  0  0  0  0  0  0  0  0
   -3.2000    2.7713    0.0000 H   0  0  0  0  0  0  0  0  0  0  0  0
   -3.2000   -0.0000    0.0000 C   0  0  0  0  0  0  0  0  0  0  0  0
   -4.8000   -0.0000    0.0000 H   0  0  0  0  0  0  0  0  0  0  0  0
   -2.4000   -1.3856    0.0000 C   0  0  0  0  0  0  0  0  0  0  0  0
   -3.2000   -2.7713    0.0000 F   0  0  0  0  0  0  0  0  0  0  0  0
   -0.8000   -1.3856    0.0000 C   0  0  0  0  0  0  0  0  0  0  0  0
    0.0000   -2.7713    0.0000 H   0  0  0  0  0  0  0  0  0  0  0  0
  1  2  2  0  0  0  0
  2  3  1  0  0  0  0
  2  4  1  0  0  0  0
  4  5  1  0  0  0  0
  5  6  1  0  0  0  0
  5  7  2  0  0  0  0
  7  8  1  0  0  0  0
  7  9  1  0  0  0  0
  9 10  1  0  0  0  0
  9 11  2  0  0  0  0
 11 12  1  0  0  0  0
 11 13  1  0  0  0  0
 13  4  2  0  0  0  0
 13 14  1  0  0  0  0
M  END
> <ChemID>
101865

> <source_casrn>
456-48-4

> <CAS>
456-48-4

> <SMILES>
O=Cc1cccc(F)c1

> <NAME>
Benzaldehyde, 3-fluoro-

> <preferred_name>
Benzaldehyde, 3-fluoro-

> <iupac>
3-Fluorobenzaldehyde

> <MPID>
20908

> <dsstox_substance_id>
DTXSID9060027

> <Canonical_QSARr>
O=Cc1cccc(F)c1

> <InChI_Code_QSARr>
InChI=1S/C7H5FO/c8-7-3-1-2-6(4-7)5-9/h1-5H

> <InChI Key_QSARr>
PIKNVEVCWAAOMJ-UHFFFAOYSA-N

> <Salt_Solvent>
?

> <BP>
173.0

$$$$
101869
  -INDIGO-08031720192D

 26 26  0  0  0  0  0  0  0  0999 V2000
   -0.7999    1.3857    0.0000 N   0  0  0  0  0  0  0  0  0  0  0  0
   -0.2528    2.8891    0.0000 H   0  0  0  0  0  0  0  0  0  0  0  0
   -0.0000    0.0000    0.0000 C   0  0  0  0  0  0  0  0  0  0  0  0
    1.2257   -1.0285    0.0000 H   0  0  0  0  0  0  0  0  0  0  0  0
    1.3857    0.8000    0.0000 C   0  0  0  0  0  0  0  0  0  0  0  0
    1.9979    2.2782    0.0000 H   0  0  0  0  0  0  0  0  0  0  0  0
    0.7733    2.2782    0.0000 H   0  0  0  0  0  0  0  0  0  0  0  0
    2.7714    0.0000    0.0000 C   0  0  0  0  0  0  0  0  0  0  0  0
    2.1590   -1.4782    0.0000 H   0  0  0  0  0  0  0  0  0  0  0  0
    3.3836   -1.4782    0.0000 H   0  0  0  0  0  0  0  0  0  0  0  0
    4.1569    0.8000    0.0000 C   0  0  0  0  0  0  0  0  0  0  0  0
    5.5426    1.6000    0.0000 H   0  0  0  0  0  0  0  0  0  0  0  0
    5.5426    0.0000    0.0000 H   0  0  0  0  0  0  0  0  0  0  0  0
    4.1569    2.4000    0.0000 H   0  0  0  0  0  0  0  0  0  0  0  0
   -0.7999   -1.3857    0.0000 C   0  0  0  0  0  0  0  0  0  0  0  0
    0.7035   -1.9329    0.0000 H   0  0  0  0  0  0  0  0  0  0  0  0
   -1.0778   -2.9613    0.0000 H   0  0  0  0  0  0  0  0  0  0  0  0
   -2.3999   -1.3857    0.0000 C   0  0  0  0  0  0  0  0  0  0  0  0
   -2.1222   -2.9613    0.0000 H   0  0  0  0  0  0  0  0  0  0  0  0
   -3.9035   -1.9329    0.0000 H   0  0  0  0  0  0  0  0  0  0  0  0
   -3.2000    0.0000    0.0000 C   0  0  0  0  0  0  0  0  0  0  0  0
   -4.4257   -1.0285    0.0000 H   0  0  0  0  0  0  0  0  0  0  0  0
   -4.4257    1.0285    0.0000 H   0  0  0  0  0  0  0  0  0  0  0  0
   -2.3999    1.3857    0.0000 C   0  0  0  0  0  0  0  0  0  0  0  0
   -3.9035    1.9329    0.0000 H   0  0  0  0  0  0  0  0  0  0  0  0
   -2.1222    2.9613    0.0000 H   0  0  0  0  0  0  0  0  0  0  0  0
  1  2  1  0  0  0  0
  1  3  1  0  0  0  0
  3  4  1  0  0  0  0
  3  5  1  0  0  0  0
  5  6  1  0  0  0  0
  5  7  1  0  0  0  0
  5  8  1  0  0  0  0
  8  9  1  0  0  0  0
  8 10  1  0  0  0  0
  8 11  1  0  0  0  0
 11 12  1  0  0  0  0
 11 13  1  0  0  0  0
 11 14  1  0  0  0  0
  3 15  1  0  0  0  0
 15 16  1  0  0  0  0
 15 17  1  0  0  0  0
 15 18  1  0  0  0  0
 18 19  1  0  0  0  0
 18 20  1  0  0  0  0
 18 21  1  0  0  0  0
 21 22  1  0  0  0  0
 21 23  1  0  0  0  0
 21 24  1  0  0  0  0
 24  1  1  0  0  0  0
 24 25  1  0  0  0  0
 24 26  1  0  0  0  0
M  END
> <ChemID>
101869

> <source_casrn>
458-88-8

> <CAS>
458-88-8

> <SMILES>
CCC[C@H]1CCCCN1

> <NAME>
2-PROPYLPIPERIDINE

> <preferred_name>
d-Coniine

> <iupac>
(2S)-2-propylpiperidine

> <MPID>
20912

> <dsstox_substance_id>
DTXSID8041795

> <Canonical_QSARr>
CCCC1CCCCN1

> <InChI_Code_QSARr>
InChI=1S/C8H17N/c1-2-5-8-6-3-4-7-9-8/h8-9H,2-7H2,1H3

> <InChI Key_QSARr>
NDNUANOUGZGEPO-UHFFFAOYSA-N

> <Salt_Solvent>
?

> <BP>
166.5

$$$$
101873
  -INDIGO-08031720192D

 16 16  0  0  0  0  0  0  0  0999 V2000
    0.0001   -0.0000    0.0000 C   0  0  0  0  0  0  0  0  0  0  0  0
    0.0001   -1.6000    0.0000 C   0  0  0  0  0  0  0  0  0  0  0  0
    1.3856   -2.4000    0.0000 H   0  0  0  0  0  0  0  0  0  0  0  0
   -1.3856   -2.4000    0.0000 C   0  0  0  0  0  0  0  0  0  0  0  0
   -1.3856   -4.0000    0.0000 H   0  0  0  0  0  0  0  0  0  0  0  0
   -2.7712   -1.6000    0.0000 C   0  0  0  0  0  0  0  0  0  0  0  0
   -4.1569   -2.4000    0.0000 F   0  0  0  0  0  0  0  0  0  0  0  0
   -2.7712   -0.0000    0.0000 C   0  0  0  0  0  0  0  0  0  0  0  0
   -4.1569    0.8000    0.0000 H   0  0  0  0  0  0  0  0  0  0  0  0
   -1.3856    0.8000    0.0000 C   0  0  0  0  0  0  0  0  0  0  0  0
   -1.3856    2.4000    0.0000 H   0  0  0  0  0  0  0  0  0  0  0  0
    1.3856    0.8000    0.0000 O   0  0  0  0  0  0  0  0  0  0  0  0
    2.7713   -0.0000    0.0000 C   0  0  0  0  0  0  0  0  0  0  0  0
    4.1569    0.8000    0.0000 H   0  0  0  0  0  0  0  0  0  0  0  0
    4.1569   -0.8000    0.0000 H   0  0  0  0  0  0  0  0  0  0  0  0
    2.7713    1.6000    0.0000 H   0  0  0  0  0  0  0  0  0  0  0  0
  1  2  1  0  0  0  0
  2  3  1  0  0  0  0
  2  4  2  0  0  0  0
  4  5  1  0  0  0  0
  4  6  1  0  0  0  0
  6  7  1  0  0  0  0
  6  8  2  0  0  0  0
  8  9  1  0  0  0  0
  8 10  1  0  0  0  0
 10  1  2  0  0  0  0
 10 11  1  0  0  0  0
  1 12  1  0  0  0  0
 12 13  1  0  0  0  0
 13 14  1  0  0  0  0
 13 15  1  0  0  0  0
 13 16  1  0  0  0  0
M  END
> <ChemID>
101873

> <source_casrn>
459-60-9

> <CAS>
459-60-9

> <SMILES>
COc1ccc(F)cc1

> <NAME>
P-FLUOROANISOLE

> <preferred_name>
p-Fluoroanisole

> <iupac>
1-Fluoro-4-methoxybenzene

> <MPID>
20916

> <dsstox_substance_id>
DTXSID3060033

> <Canonical_QSARr>
COc1ccc(F)cc1

> <InChI_Code_QSARr>
InChI=1S/C7H7FO/c1-9-7-4-2-6(8)3-5-7/h2-5H,1H3

> <InChI Key_QSARr>
VIPWUFMFHBIKQI-UHFFFAOYSA-N

> <Salt_Solvent>
?

> <BP>
157.0

$$$$
101877
  -INDIGO-08031720192D

 12 12  0  0  0  0  0  0  0  0999 V2000
   -0.0000   -0.0000    0.0000 C   0  0  0  0  0  0  0  0  0  0  0  0
    0.8000   -1.3857    0.0000 C   0  0  0  0  0  0  0  0  0  0  0  0
    2.4000   -1.3857    0.0000 H   0  0  0  0  0  0  0  0  0  0  0  0
   -0.0000   -2.7713    0.0000 C   0  0  0  0  0  0  0  0  0  0  0  0
    0.8000   -4.1569    0.0000 H   0  0  0  0  0  0  0  0  0  0  0  0
   -1.6000   -2.7713    0.0000 C   0  0  0  0  0  0  0  0  0  0  0  0
   -2.4000   -4.1569    0.0000 F   0  0  0  0  0  0  0  0  0  0  0  0
   -2.4000   -1.3856    0.0000 C   0  0  0  0  0  0  0  0  0  0  0  0
   -4.0000   -1.3856    0.0000 H   0  0  0  0  0  0  0  0  0  0  0  0
   -1.6000   -0.0000    0.0000 C   0  0  0  0  0  0  0  0  0  0  0  0
   -2.4000    1.3856    0.0000 H   0  0  0  0  0  0  0  0  0  0  0  0
    0.8000    1.3856    0.0000 Br  0  0  0  0  0  0  0  0  0  0  0  0
  1  2  1  0  0  0  0
  2  3  1  0  0  0  0
  2  4  2  0  0  0  0
  4  5  1  0  0  0  0
  4  6  1  0  0  0  0
  6  7  1  0  0  0  0
  6  8  2  0  0  0  0
  8  9  1  0  0  0  0
  8 10  1  0  0  0  0
 10  1  2  0  0  0  0
 10 11  1  0  0  0  0
  1 12  1  0  0  0  0
M  END
> <ChemID>
101877

> <source_casrn>
460-00-4

> <CAS>
460-00-4

> <SMILES>
Fc1ccc(Br)cc1

> <NAME>
P-BROMOFLUOROBENZENE

> <preferred_name>
1-Bromo-4-fluorobenzene

> <iupac>
1-bromo-4-fluorobenzene

> <MPID>
20920

> <dsstox_substance_id>
DTXSID4027153

> <Canonical_QSARr>
Fc1ccc(Br)cc1

> <InChI_Code_QSARr>
InChI=1S/C6H4BrF/c7-5-1-3-6(8)4-2-5/h1-4H

> <InChI Key_QSARr>
AITNMTXHTIIIBB-UHFFFAOYSA-N

> <Salt_Solvent>
?

> <BP>
151.5

$$$$
101881
  -INDIGO-08031720192D

 11 10  0  0  0  0  0  0  0  0999 V2000
   -1.3856    0.8000    0.0000 C   0  0  0  0  0  0  0  0  0  0  0  0
    0.0000    0.0000    0.0000 C   0  0  0  0  0  0  0  0  0  0  0  0
   -0.6123   -1.4782    0.0000 H   0  0  0  0  0  0  0  0  0  0  0  0
    0.6123   -1.4782    0.0000 H   0  0  0  0  0  0  0  0  0  0  0  0
    1.3856    0.8000    0.0000 C   0  0  0  0  0  0  0  0  0  0  0  0
    2.7713    1.6000    0.0000 H   0  0  0  0  0  0  0  0  0  0  0  0
    2.7713    0.0000    0.0000 H   0  0  0  0  0  0  0  0  0  0  0  0
    1.3856    2.4000    0.0000 Cl  0  0  0  0  0  0  0  0  0  0  0  0
   -2.7713    1.6000    0.0000 F   0  0  0  0  0  0  0  0  0  0  0  0
   -2.7713    0.0000    0.0000 F   0  0  0  0  0  0  0  0  0  0  0  0
   -1.3856    2.4000    0.0000 F   0  0  0  0  0  0  0  0  0  0  0  0
  1  2  1  0  0  0  0
  2  3  1  0  0  0  0
  2  4  1  0  0  0  0
  2  5  1  0  0  0  0
  5  6  1  0  0  0  0
  5  7  1  0  0  0  0
  5  8  1  0  0  0  0
  1  9  1  0  0  0  0
  1 10  1  0  0  0  0
  1 11  1  0  0  0  0
M  END
> <ChemID>
101881

> <source_casrn>
460-35-5

> <CAS>
460-35-5

> <SMILES>
FC(F)(F)CCCl

> <NAME>
Propane, 3-chloro-1,1,1-trifluoro-

> <preferred_name>
3-chloro-1,1,1-trifluoropropane

> <iupac>
3-chloro-1,1,1-trifluoropropane

> <MPID>
20924

> <dsstox_substance_id>
DTXSID5042033

> <Canonical_QSARr>
FC(F)(F)CCCl

> <InChI_Code_QSARr>
InChI=1S/C3H4ClF3/c4-2-1-3(5,6)7/h1-2H2

> <InChI Key_QSARr>
ZPIFKCVYZBVZIV-UHFFFAOYSA-N

> <Salt_Solvent>
?

> <BP>
45.1

$$$$
101885
  -INDIGO-08031720192D

 12 11  0  0  0  0  0  0  0  0999 V2000
    1.3856    2.4000    0.0000 F   0  0  0  0  0  0  0  0  0  0  0  0
    1.3856    0.8000    0.0000 C   0  0  0  0  0  0  0  0  0  0  0  0
    2.7713    1.6000    0.0000 H   0  0  0  0  0  0  0  0  0  0  0  0
    2.7713    0.0000    0.0000 F   0  0  0  0  0  0  0  0  0  0  0  0
    0.0000    0.0000    0.0000 C   0  0  0  0  0  0  0  0  0  0  0  0
    0.6123   -1.4782    0.0000 H   0  0  0  0  0  0  0  0  0  0  0  0
   -0.6123   -1.4782    0.0000 H   0  0  0  0  0  0  0  0  0  0  0  0
   -1.3856    0.8000    0.0000 O   0  0  0  0  0  0  0  0  0  0  0  0
   -2.7713    0.0000    0.0000 C   0  0  0  0  0  0  0  0  0  0  0  0
   -4.1569   -0.8000    0.0000 H   0  0  0  0  0  0  0  0  0  0  0  0
   -4.1569    0.8000    0.0000 H   0  0  0  0  0  0  0  0  0  0  0  0
   -2.7713   -1.6000    0.0000 H   0  0  0  0  0  0  0  0  0  0  0  0
  1  2  1  0  0  0  0
  2  3  1  0  0  0  0
  2  4  1  0  0  0  0
  2  5  1  0  0  0  0
  5  6  1  0  0  0  0
  5  7  1  0  0  0  0
  5  8  1  0  0  0  0
  8  9  1  0  0  0  0
  9 10  1  0  0  0  0
  9 11  1  0  0  0  0
  9 12  1  0  0  0  0
M  END
> <ChemID>
101885

> <source_casrn>
461-57-4

> <CAS>
461-57-4

> <SMILES>
COCC(F)F

> <NAME>
Ethane, 1,1-difluoro-2-methoxy-

> <preferred_name>
PUBCHEM_17962868

> <iupac>
C3H6F2O

> <MPID>
20928

> <dsstox_substance_id>
DTXSID30591779

> <Canonical_QSARr>
COCC(F)F

> <InChI_Code_QSARr>
InChI=1S/C3H6F2O/c1-6-2-3(4)5/h3H,2H2,1H3

> <InChI Key_QSARr>
CRGZRXUKXVTRNO-UHFFFAOYSA-N

> <Salt_Solvent>
?

> <BP>
48.5

$$$$
101889
  -INDIGO-08031720192D

 11 10  0  0  0  0  0  0  0  0999 V2000
    1.3856    0.8000    0.0000 C   0  0  0  0  0  0  0  0  0  0  0  0
    2.7713    1.6000    0.0000 H   0  0  0  0  0  0  0  0  0  0  0  0
    2.7713    0.0000    0.0000 H   0  0  0  0  0  0  0  0  0  0  0  0
    0.0000    0.0000    0.0000 C   0  0  0  0  0  0  0  0  0  0  0  0
    0.6123   -1.4782    0.0000 H   0  0  0  0  0  0  0  0  0  0  0  0
   -0.6123   -1.4782    0.0000 H   0  0  0  0  0  0  0  0  0  0  0  0
   -1.3856    0.8000    0.0000 C   0  0  0  0  0  0  0  0  0  0  0  0
   -2.7713    1.6000    0.0000 H   0  0  0  0  0  0  0  0  0  0  0  0
   -2.7713    0.0000    0.0000 H   0  0  0  0  0  0  0  0  0  0  0  0
   -1.3856    2.4000    0.0000 F   0  0  0  0  0  0  0  0  0  0  0  0
    1.3856    2.4000    0.0000 Cl  0  0  0  0  0  0  0  0  0  0  0  0
  1  2  1  0  0  0  0
  1  3  1  0  0  0  0
  1  4  1  0  0  0  0
  4  5  1  0  0  0  0
  4  6  1  0  0  0  0
  4  7  1  0  0  0  0
  7  8  1  0  0  0  0
  7  9  1  0  0  0  0
  7 10  1  0  0  0  0
  1 11  1  0  0  0  0
M  END
> <ChemID>
101889

> <source_casrn>
462-38-4

> <CAS>
NOCAS_870542

> <SMILES>
FCCCCl

> <NAME>
1-chloro-3-fluoropropane

> <preferred_name>


> <iupac>


> <MPID>
20932

> <dsstox_substance_id>
DTXSID40870542

> <Canonical_QSARr>
FCCCCl

> <InChI_Code_QSARr>
InChI=1S/C3H6ClF/c4-2-1-3-5/h1-3H2

> <InChI Key_QSARr>
PFDZQZAOZNELDX-UHFFFAOYSA-N

> <Salt_Solvent>
?

> <BP>
80.0

$$$$
101893
  -INDIGO-08031720192D

 14 13  0  0  0  0  0  0  0  0999 V2000
    1.3856   -2.4000    0.0000 Cl  0  0  0  0  0  0  0  0  0  0  0  0
    1.3856   -0.8000    0.0000 C   0  0  0  0  0  0  0  0  0  0  0  0
    2.7713   -1.6000    0.0000 H   0  0  0  0  0  0  0  0  0  0  0  0
    2.7713    0.0000    0.0000 H   0  0  0  0  0  0  0  0  0  0  0  0
    0.0000    0.0000    0.0000 C   0  0  0  0  0  0  0  0  0  0  0  0
    0.6123    1.4782    0.0000 H   0  0  0  0  0  0  0  0  0  0  0  0
   -0.6123    1.4782    0.0000 H   0  0  0  0  0  0  0  0  0  0  0  0
   -1.3856   -0.8000    0.0000 C   0  0  0  0  0  0  0  0  0  0  0  0
   -1.9980   -2.2782    0.0000 H   0  0  0  0  0  0  0  0  0  0  0  0
   -0.7733   -2.2782    0.0000 H   0  0  0  0  0  0  0  0  0  0  0  0
   -2.7713    0.0000    0.0000 C   0  0  0  0  0  0  0  0  0  0  0  0
   -4.1569    0.8000    0.0000 H   0  0  0  0  0  0  0  0  0  0  0  0
   -4.1569   -0.8000    0.0000 H   0  0  0  0  0  0  0  0  0  0  0  0
   -2.7713    1.6000    0.0000 F   0  0  0  0  0  0  0  0  0  0  0  0
  1  2  1  0  0  0  0
  2  3  1  0  0  0  0
  2  4  1  0  0  0  0
  2  5  1  0  0  0  0
  5  6  1  0  0  0  0
  5  7  1  0  0  0  0
  5  8  1  0  0  0  0
  8  9  1  0  0  0  0
  8 10  1  0  0  0  0
  8 11  1  0  0  0  0
 11 12  1  0  0  0  0
 11 13  1  0  0  0  0
 11 14  1  0  0  0  0
M  END
> <ChemID>
101893

> <source_casrn>
462-73-7

> <CAS>
462-73-7

> <SMILES>
FCCCCCl

> <NAME>
1-Chloro-4-fluorobutane

> <preferred_name>
Butane, 1-chloro-4-fluoro-

> <iupac>
1-chloro-4-fluorobutane

> <MPID>
20936

> <dsstox_substance_id>
DTXSID30196768

> <Canonical_QSARr>
FCCCCCl

> <InChI_Code_QSARr>
InChI=1S/C4H8ClF/c5-3-1-2-4-6/h1-4H2

> <InChI Key_QSARr>
RYKUJAHSVIVAQV-UHFFFAOYSA-N

> <Salt_Solvent>
?

> <BP>
114.7

$$$$
101897
  -INDIGO-08031720192D

 26 25  0  0  0  0  0  0  0  0999 V2000
    4.1569   -2.4000    0.0000 F   0  0  0  0  0  0  0  0  0  0  0  0
    4.1569   -0.8000    0.0000 C   0  0  0  0  0  0  0  0  0  0  0  0
    5.5426   -1.6000    0.0000 H   0  0  0  0  0  0  0  0  0  0  0  0
    5.5426    0.0000    0.0000 H   0  0  0  0  0  0  0  0  0  0  0  0
    2.7713    0.0000    0.0000 C   0  0  0  0  0  0  0  0  0  0  0  0
    3.3835    1.4782    0.0000 H   0  0  0  0  0  0  0  0  0  0  0  0
    2.1590    1.4782    0.0000 H   0  0  0  0  0  0  0  0  0  0  0  0
    1.3856   -0.8000    0.0000 C   0  0  0  0  0  0  0  0  0  0  0  0
    0.7733   -2.2782    0.0000 H   0  0  0  0  0  0  0  0  0  0  0  0
    1.9980   -2.2782    0.0000 H   0  0  0  0  0  0  0  0  0  0  0  0
   -0.0001    0.0000    0.0000 C   0  0  0  0  0  0  0  0  0  0  0  0
    0.6123    1.4782    0.0000 H   0  0  0  0  0  0  0  0  0  0  0  0
   -0.6122    1.4782    0.0000 H   0  0  0  0  0  0  0  0  0  0  0  0
   -1.3856   -0.8000    0.0000 C   0  0  0  0  0  0  0  0  0  0  0  0
   -1.9979   -2.2782    0.0000 H   0  0  0  0  0  0  0  0  0  0  0  0
   -0.7734   -2.2782    0.0000 H   0  0  0  0  0  0  0  0  0  0  0  0
   -2.7713    0.0000    0.0000 C   0  0  0  0  0  0  0  0  0  0  0  0
   -2.1589    1.4782    0.0000 H   0  0  0  0  0  0  0  0  0  0  0  0
   -3.3836    1.4782    0.0000 H   0  0  0  0  0  0  0  0  0  0  0  0
   -4.1570   -0.8000    0.0000 C   0  0  0  0  0  0  0  0  0  0  0  0
   -4.7692   -2.2782    0.0000 H   0  0  0  0  0  0  0  0  0  0  0  0
   -3.5446   -2.2782    0.0000 H   0  0  0  0  0  0  0  0  0  0  0  0
   -5.5425    0.0000    0.0000 C   0  0  0  0  0  0  0  0  0  0  0  0
   -6.9282    0.8000    0.0000 H   0  0  0  0  0  0  0  0  0  0  0  0
   -6.9282   -0.8000    0.0000 H   0  0  0  0  0  0  0  0  0  0  0  0
   -5.5425    1.6000    0.0000 H   0  0  0  0  0  0  0  0  0  0  0  0
  1  2  1  0  0  0  0
  2  3  1  0  0  0  0
  2  4  1  0  0  0  0
  2  5  1  0  0  0  0
  5  6  1  0  0  0  0
  5  7  1  0  0  0  0
  5  8  1  0  0  0  0
  8  9  1  0  0  0  0
  8 10  1  0  0  0  0
  8 11  1  0  0  0  0
 11 12  1  0  0  0  0
 11 13  1  0  0  0  0
 11 14  1  0  0  0  0
 14 15  1  0  0  0  0
 14 16  1  0  0  0  0
 14 17  1  0  0  0  0
 17 18  1  0  0  0  0
 17 19  1  0  0  0  0
 17 20  1  0  0  0  0
 20 21  1  0  0  0  0
 20 22  1  0  0  0  0
 20 23  1  0  0  0  0
 23 24  1  0  0  0  0
 23 25  1  0  0  0  0
 23 26  1  0  0  0  0
M  END
> <ChemID>
101897

> <source_casrn>
463-11-6

> <CAS>
463-11-6

> <SMILES>
CCCCCCCCF

> <NAME>
1-FLUOROOCTANE

> <preferred_name>
Octane, 1-fluoro-

> <iupac>
1-Fluorooctane

> <MPID>
20940

> <dsstox_substance_id>
DTXSID70196787

> <Canonical_QSARr>
CCCCCCCCF

> <InChI_Code_QSARr>
InChI=1S/C8H17F/c1-2-3-4-5-6-7-8-9/h2-8H2,1H3

> <InChI Key_QSARr>
DHIVLKMGKIZOHF-UHFFFAOYSA-N

> <Salt_Solvent>
?

> <BP>
142.4

$$$$
101901
  -INDIGO-08031720192D

  3  2  0  0  0  0  0  0  0  0999 V2000
    0.0000    0.0000    0.0000 C   0  0  0  0  0  0  0  0  0  0  0  0
    1.6000    0.0000    0.0000 O   0  0  0  0  0  0  0  0  0  0  0  0
   -1.6000    0.0000    0.0000 S   0  0  0  0  0  0  0  0  0  0  0  0
  1  2  2  0  0  0  0
  1  3  2  0  0  0  0
M  END
> <ChemID>
101901

> <source_casrn>
463-58-1

> <CAS>
463-58-1

> <SMILES>
O=C=S

> <NAME>
CARBONYL SULFIDE

> <preferred_name>
Carbonyl sulfide

> <iupac>
thioxomethanone

> <MPID>
20944

> <dsstox_substance_id>
DTXSID6023949

> <Canonical_QSARr>
O=C=S

> <InChI_Code_QSARr>
InChI=1S/COS/c2-1-3

> <InChI Key_QSARr>
JJWKPURADFRFRB-UHFFFAOYSA-N

> <Salt_Solvent>
?

> <BP>
-50.0

$$$$
101905
  -INDIGO-08031720192D

 21 20  0  0  0  0  0  0  0  0999 V2000
    2.7713    1.6000    0.0000 C   0  0  0  0  0  0  0  0  0  0  0  0
    4.1569    2.4000    0.0000 H   0  0  0  0  0  0  0  0  0  0  0  0
    2.7713    3.2000    0.0000 H   0  0  0  0  0  0  0  0  0  0  0  0
    4.1569    0.8000    0.0000 H   0  0  0  0  0  0  0  0  0  0  0  0
    1.3856    0.8000    0.0000 C   0  0  0  0  0  0  0  0  0  0  0  0
    0.5857    2.1856    0.0000 H   0  0  0  0  0  0  0  0  0  0  0  0
    0.0000    0.0000    0.0000 C   0  0  0  0  0  0  0  0  0  0  0  0
   -1.3856   -0.8000    0.0000 C   0  0  0  0  0  0  0  0  0  0  0  0
   -2.7713   -1.6000    0.0000 H   0  0  0  0  0  0  0  0  0  0  0  0
   -2.7713    0.0000    0.0000 H   0  0  0  0  0  0  0  0  0  0  0  0
   -1.3856   -2.4000    0.0000 H   0  0  0  0  0  0  0  0  0  0  0  0
   -0.8000    1.3856    0.0000 C   0  0  0  0  0  0  0  0  0  0  0  0
   -1.6000    2.7713    0.0000 H   0  0  0  0  0  0  0  0  0  0  0  0
   -2.4000    1.3856    0.0000 H   0  0  0  0  0  0  0  0  0  0  0  0
   -0.2528    2.8891    0.0000 H   0  0  0  0  0  0  0  0  0  0  0  0
    0.8000   -1.3857    0.0000 C   0  0  0  0  0  0  0  0  0  0  0  0
    1.6000   -2.7713    0.0000 H   0  0  0  0  0  0  0  0  0  0  0  0
    0.0000   -2.7713    0.0000 H   0  0  0  0  0  0  0  0  0  0  0  0
    2.3757   -1.6635    0.0000 H   0  0  0  0  0  0  0  0  0  0  0  0
    2.1856   -0.5857    0.0000 O   0  0  0  0  0  0  0  0  0  0  0  0
    3.7856   -0.5857    0.0000 H   0  0  0  0  0  0  0  0  0  0  0  0
  1  2  1  0  0  0  0
  1  3  1  0  0  0  0
  1  4  1  0  0  0  0
  1  5  1  0  0  0  0
  5  6  1  0  0  0  0
  5  7  1  0  0  0  0
  7  8  1  0  0  0  0
  8  9  1  0  0  0  0
  8 10  1  0  0  0  0
  8 11  1  0  0  0  0
  7 12  1  0  0  0  0
 12 13  1  0  0  0  0
 12 14  1  0  0  0  0
 12 15  1  0  0  0  0
  7 16  1  0  0  0  0
 16 17  1  0  0  0  0
 16 18  1  0  0  0  0
 16 19  1  0  0  0  0
  5 20  1  0  0  0  0
 20 21  1  0  0  0  0
M  END
> <ChemID>
101905

> <source_casrn>
464-07-3

> <CAS>
NOCAS_861947

> <SMILES>
CC(O)C(C)(C)C

> <NAME>
3,3-DIMETHYL-2-BUTANOL

> <preferred_name>


> <iupac>


> <MPID>
20948

> <dsstox_substance_id>
DTXSID10861947

> <Canonical_QSARr>
CC(O)C(C)(C)C

> <InChI_Code_QSARr>
InChI=1S/C6H14O/c1-5(7)6(2,3)4/h5,7H,1-4H3

> <InChI Key_QSARr>
DFOXKPDFWGNLJU-UHFFFAOYSA-N

> <Salt_Solvent>
?

> <BP>
120.0

$$$$
101909
  -INDIGO-08031720192D

 29 30  0  0  0  0  0  0  0  0999 V2000
    0.0000   -0.0000    0.0000 C   0  0  0  0  0  0  0  0  0  0  0  0
    0.5526    1.5015    0.0000 C   0  0  0  0  0  0  0  0  0  0  0  0
    1.4405    1.9834    0.0000 H   0  0  0  0  0  0  0  0  0  0  0  0
    0.2842    3.0788    0.0000 O   0  0  0  0  0  0  0  0  0  0  0  0
    1.5159    4.1000    0.0000 H   0  0  0  0  0  0  0  0  0  0  0  0
   -0.8198    0.8734    0.0000 C   0  0  0  0  0  0  0  0  0  0  0  0
   -2.3937    1.1611    0.0000 H   0  0  0  0  0  0  0  0  0  0  0  0
   -1.0180    2.4611    0.0000 H   0  0  0  0  0  0  0  0  0  0  0  0
   -1.6175   -0.6372    0.0000 C   0  0  0  0  0  0  0  0  0  0  0  0
   -2.5698   -1.9230    0.0000 H   0  0  0  0  0  0  0  0  0  0  0  0
   -3.0923   -0.2630    0.0000 C   0  0  0  0  0  0  0  0  0  0  0  0
   -4.0746   -1.5260    0.0000 C   0  0  0  0  0  0  0  0  0  0  0  0
   -5.6595   -1.3069    0.0000 H   0  0  0  0  0  0  0  0  0  0  0  0
   -5.0568   -2.7890    0.0000 H   0  0  0  0  0  0  0  0  0  0  0  0
   -4.6772   -0.0439    0.0000 H   0  0  0  0  0  0  0  0  0  0  0  0
   -3.8557    1.1432    0.0000 C   0  0  0  0  0  0  0  0  0  0  0  0
   -4.6189    2.5493    0.0000 H   0  0  0  0  0  0  0  0  0  0  0  0
   -5.4552    1.1853    0.0000 H   0  0  0  0  0  0  0  0  0  0  0  0
   -3.0196    2.5073    0.0000 H   0  0  0  0  0  0  0  0  0  0  0  0
   -0.7841   -2.0140    0.0000 C   0  0  0  0  0  0  0  0  0  0  0  0
   -0.0303   -3.4254    0.0000 H   0  0  0  0  0  0  0  0  0  0  0  0
   -2.1746   -2.8055    0.0000 H   0  0  0  0  0  0  0  0  0  0  0  0
    0.6865   -1.2788    0.0000 C   0  0  0  0  0  0  0  0  0  0  0  0
    2.2722   -1.0652    0.0000 H   0  0  0  0  0  0  0  0  0  0  0  0
    1.4159   -2.7029    0.0000 H   0  0  0  0  0  0  0  0  0  0  0  0
    1.5524    0.3874    0.0000 C   0  0  0  0  0  0  0  0  0  0  0  0
    3.1048    0.7747    0.0000 H   0  0  0  0  0  0  0  0  0  0  0  0
    2.9906   -0.3137    0.0000 H   0  0  0  0  0  0  0  0  0  0  0  0
    2.0808    1.2484    0.0000 H   0  0  0  0  0  0  0  0  0  0  0  0
  1  2  1  0  0  0  0
  2  3  1  0  0  0  0
  2  4  1  0  0  0  0
  4  5  1  0  0  0  0
  2  6  1  0  0  0  0
  6  7  1  0  0  0  0
  6  8  1  0  0  0  0
  6  9  1  0  0  0  0
  9 10  1  0  0  0  0
  9 11  1  0  0  0  0
 11  1  1  0  0  0  0
 11 12  1  0  0  0  0
 12 13  1  0  0  0  0
 12 14  1  0  0  0  0
 12 15  1  0  0  0  0
 11 16  1  0  0  0  0
 16 17  1  0  0  0  0
 16 18  1  0  0  0  0
 16 19  1  0  0  0  0
  9 20  1  0  0  0  0
 20 21  1  0  0  0  0
 20 22  1  0  0  0  0
 20 23  1  0  0  0  0
 23  1  1  0  0  0  0
 23 24  1  0  0  0  0
 23 25  1  0  0  0  0
  1 26  1  0  0  0  0
 26 27  1  0  0  0  0
 26 28  1  0  0  0  0
 26 29  1  0  0  0  0
M  END
> <ChemID>
101909

> <source_casrn>
464-45-9

> <CAS>
464-45-9

> <SMILES>
CC1(C)[C@@H]2C[C@@H](O)[C@@]1(C)CC2

> <NAME>
Borneol

> <preferred_name>
[(1S)-endo]-(-)-Borneol

> <iupac>
(1S,2R,4S)-1,7,7-trimethylbicyclo[2.2.1]heptan-2-ol

> <MPID>
20952

> <dsstox_substance_id>
DTXSID3022035

> <Canonical_QSARr>
CC1(C)C2CC(O)C1(C)CC2

> <InChI_Code_QSARr>
InChI=1S/C10H18O/c1-9(2)7-4-5-10(9,3)8(11)6-7/h7-8,11H,4-6H2,1-3H3

> <InChI Key_QSARr>
DTGKSKDOIYIVQL-UHFFFAOYSA-N

> <Salt_Solvent>
?

> <BP>
210.0

$$$$
101915
  -INDIGO-08031720192D

  8  7  0  0  0  0  0  0  0  0999 V2000
    1.6000    0.0000    0.0000 C   0  0  0  0  0  0  0  0  0  0  0  0
    2.4000   -1.3856    0.0000 O   0  0  0  0  0  0  0  0  0  0  0  0
    2.4000    1.3856    0.0000 O   0  0  0  0  0  0  0  0  0  0  0  0
    4.0000    1.3856    0.0000 H   0  0  0  0  0  0  0  0  0  0  0  0
   -0.0000    0.0000    0.0000 C   0  0  0  0  0  0  0  0  0  0  0  0
   -1.6000    0.0000    0.0000 H   0  0  0  0  0  0  0  0  0  0  0  0
   -0.8000    1.3856    0.0000 Cl  0  0  0  0  0  0  0  0  0  0  0  0
   -0.8000   -1.3856    0.0000 F   0  0  0  0  0  0  0  0  0  0  0  0
  1  2  2  0  0  0  0
  1  3  1  0  0  0  0
  3  4  1  0  0  0  0
  1  5  1  0  0  0  0
  5  6  1  0  0  0  0
  5  7  1  0  0  0  0
  5  8  1  0  0  0  0
M  END
> <ChemID>
101915

> <source_casrn>
471-44-3

> <CAS>
NOCAS_870547

> <SMILES>
OC(=O)C(F)Cl

> <NAME>
Chlorofluoroacetic acid

> <preferred_name>


> <iupac>


> <MPID>
20957

> <dsstox_substance_id>
DTXSID40870547

> <Canonical_QSARr>
OC(=O)C(F)Cl

> <InChI_Code_QSARr>
InChI=1S/C2H2ClFO2/c3-1(4)2(5)6/h1H,(H,5,6)

> <InChI Key_QSARr>
JBIKZDFUXGHTHD-UHFFFAOYSA-N

> <Salt_Solvent>
?

> <BP>
162.0

$$$$
101919
  -INDIGO-08031720192D

 26 28  0  0  0  0  0  0  0  0999 V2000
   -1.2517    0.9966    0.0000 C   0  0  0  0  0  0  0  0  0  0  0  0
   -0.3183    2.2962    0.0000 H   0  0  0  0  0  0  0  0  0  0  0  0
   -2.2181    2.2718    0.0000 H   0  0  0  0  0  0  0  0  0  0  0  0
   -2.6374    0.1967    0.0000 C   0  0  0  0  0  0  0  0  0  0  0  0
   -4.1777   -0.2360    0.0000 H   0  0  0  0  0  0  0  0  0  0  0  0
   -3.2585    1.6711    0.0000 H   0  0  0  0  0  0  0  0  0  0  0  0
   -2.4000   -1.3857    0.0000 C   0  0  0  0  0  0  0  0  0  0  0  0
   -0.8000   -1.3857    0.0000 C   0  0  0  0  0  0  0  0  0  0  0  0
   -0.0001   -2.7713    0.0000 C   0  0  0  0  0  0  0  0  0  0  0  0
   -0.8000   -4.1570    0.0000 C   0  0  0  0  0  0  0  0  0  0  0  0
   -0.0001   -5.5426    0.0000 H   0  0  0  0  0  0  0  0  0  0  0  0
   -2.4000   -4.1570    0.0000 C   0  0  0  0  0  0  0  0  0  0  0  0
   -3.2000   -5.5426    0.0000 H   0  0  0  0  0  0  0  0  0  0  0  0
   -3.2000   -2.7713    0.0000 C   0  0  0  0  0  0  0  0  0  0  0  0
   -4.8000   -2.7713    0.0000 H   0  0  0  0  0  0  0  0  0  0  0  0
    1.6000   -2.7713    0.0000 C   0  0  0  0  0  0  0  0  0  0  0  0
    3.1036   -3.3185    0.0000 H   0  0  0  0  0  0  0  0  0  0  0  0
    1.3221   -4.3469    0.0000 H   0  0  0  0  0  0  0  0  0  0  0  0
    2.4000   -1.3857    0.0000 C   0  0  0  0  0  0  0  0  0  0  0  0
    3.6257   -0.3571    0.0000 H   0  0  0  0  0  0  0  0  0  0  0  0
    3.6257   -2.4141    0.0000 H   0  0  0  0  0  0  0  0  0  0  0  0
    1.6000    0.0000    0.0000 C   0  0  0  0  0  0  0  0  0  0  0  0
    1.6000    1.6000    0.0000 H   0  0  0  0  0  0  0  0  0  0  0  0
    3.1036    0.5473    0.0000 H   0  0  0  0  0  0  0  0  0  0  0  0
   -0.0001    0.0000    0.0000 C   0  0  0  0  0  0  0  0  0  0  0  0
    0.5278    1.5104    0.0000 H   0  0  0  0  0  0  0  0  0  0  0  0
  1  2  1  0  0  0  0
  1  3  1  0  0  0  0
  1  4  1  0  0  0  0
  4  5  1  0  0  0  0
  4  6  1  0  0  0  0
  4  7  1  0  0  0  0
  7  8  1  0  0  0  0
  8  9  2  0  0  0  0
  9 10  1  0  0  0  0
 10 11  1  0  0  0  0
 10 12  2  0  0  0  0
 12 13  1  0  0  0  0
 12 14  1  0  0  0  0
 14  7  2  0  0  0  0
 14 15  1  0  0  0  0
  9 16  1  0  0  0  0
 16 17  1  0  0  0  0
 16 18  1  0  0  0  0
 16 19  1  0  0  0  0
 19 20  1  0  0  0  0
 19 21  1  0  0  0  0
 19 22  1  0  0  0  0
 22 23  1  0  0  0  0
 22 24  1  0  0  0  0
 22 25  1  0  0  0  0
 25  1  1  0  0  0  0
 25  8  1  0  0  0  0
 25 26  1  0  0  0  0
M  END
> <ChemID>
101919

> <source_casrn>
480-72-8

> <CAS>
NOCAS_871668

> <SMILES>
C1CCc2cccc3CCC1c23

> <NAME>
ACENAPHTHYLENE, 1,2,2A,3,4,5-HEXAHYDRO-

> <preferred_name>


> <iupac>


> <MPID>
20961

> <dsstox_substance_id>
DTXSID70871668

> <Canonical_QSARr>
C1CCc2cccc3CCC1c23

> <InChI_Code_QSARr>
InChI=1S/C12H14/c1-3-9-4-2-6-11-8-7-10(5-1)12(9)11/h1,3,5,11H,2,4,6-8H2

> <InChI Key_QSARr>
BDAGIAXQQBRORQ-UHFFFAOYSA-N

> <Salt_Solvent>
?

> <BP>
249.0

$$$$
101923
  -INDIGO-08031720192D

 30 31  0  0  0  0  0  0  0  0999 V2000
    2.4000    1.3857    0.0000 C   0  0  0  0  0  0  0  0  0  0  0  0
    3.1999    0.0000    0.0000 C   0  0  0  0  0  0  0  0  0  0  0  0
    2.4000   -1.3856    0.0000 C   0  0  0  0  0  0  0  0  0  0  0  0
    3.4706   -2.5747    0.0000 O   0  0  0  0  0  0  0  0  0  0  0  0
    4.9322   -1.9239    0.0000 C   0  0  0  0  0  0  0  0  0  0  0  0
    6.4973   -1.5912    0.0000 H   0  0  0  0  0  0  0  0  0  0  0  0
    5.4266   -3.4456    0.0000 H   0  0  0  0  0  0  0  0  0  0  0  0
    4.7650   -0.3327    0.0000 O   0  0  0  0  0  0  0  0  0  0  0  0
    0.8000   -1.3856    0.0000 C   0  0  0  0  0  0  0  0  0  0  0  0
   -0.0001   -2.7712    0.0000 H   0  0  0  0  0  0  0  0  0  0  0  0
   -0.0001    0.0000    0.0000 C   0  0  0  0  0  0  0  0  0  0  0  0
   -1.6000    0.0000    0.0000 C   0  0  0  0  0  0  0  0  0  0  0  0
   -1.8088    1.5863    0.0000 H   0  0  0  0  0  0  0  0  0  0  0  0
   -2.8694    0.9741    0.0000 H   0  0  0  0  0  0  0  0  0  0  0  0
   -2.4000   -1.3856    0.0000 C   0  0  0  0  0  0  0  0  0  0  0  0
   -1.6000   -2.7712    0.0000 H   0  0  0  0  0  0  0  0  0  0  0  0
   -4.0000   -1.3856    0.0000 C   0  0  0  0  0  0  0  0  0  0  0  0
   -4.8000   -2.7712    0.0000 H   0  0  0  0  0  0  0  0  0  0  0  0
   -4.8000    0.0000    0.0000 H   0  0  0  0  0  0  0  0  0  0  0  0
    0.8000    1.3857    0.0000 C   0  0  0  0  0  0  0  0  0  0  0  0
   -0.0001    2.7713    0.0000 O   0  0  0  0  0  0  0  0  0  0  0  0
    0.8000    4.1569    0.0000 C   0  0  0  0  0  0  0  0  0  0  0  0
   -0.0001    5.5426    0.0000 H   0  0  0  0  0  0  0  0  0  0  0  0
    1.6000    5.5426    0.0000 H   0  0  0  0  0  0  0  0  0  0  0  0
   -0.8000    4.1569    0.0000 H   0  0  0  0  0  0  0  0  0  0  0  0
    3.1999    2.7713    0.0000 O   0  0  0  0  0  0  0  0  0  0  0  0
    4.8000    2.7713    0.0000 C   0  0  0  0  0  0  0  0  0  0  0  0
    5.6000    4.1569    0.0000 H   0  0  0  0  0  0  0  0  0  0  0  0
    6.3999    2.7713    0.0000 H   0  0  0  0  0  0  0  0  0  0  0  0
    4.0000    4.1569    0.0000 H   0  0  0  0  0  0  0  0  0  0  0  0
  1  2  1  0  0  0  0
  2  3  2  0  0  0  0
  3  4  1  0  0  0  0
  4  5  1  0  0  0  0
  5  6  1  0  0  0  0
  5  7  1  0  0  0  0
  5  8  1  0  0  0  0
  8  2  1  0  0  0  0
  3  9  1  0  0  0  0
  9 10  1  0  0  0  0
  9 11  2  0  0  0  0
 11 12  1  0  0  0  0
 12 13  1  0  0  0  0
 12 14  1  0  0  0  0
 12 15  1  0  0  0  0
 15 16  1  0  0  0  0
 15 17  2  0  0  0  0
 17 18  1  0  0  0  0
 17 19  1  0  0  0  0
 11 20  1  0  0  0  0
 20  1  2  0  0  0  0
 20 21  1  0  0  0  0
 21 22  1  0  0  0  0
 22 23  1  0  0  0  0
 22 24  1  0  0  0  0
 22 25  1  0  0  0  0
  1 26  1  0  0  0  0
 26 27  1  0  0  0  0
 27 28  1  0  0  0  0
 27 29  1  0  0  0  0
 27 30  1  0  0  0  0
M  END
> <ChemID>
101923

> <source_casrn>
484-31-1

> <CAS>
NOCAS_862007

> <SMILES>
COc1c(OC)c(CC=C)cc2OCOc12

> <NAME>
Apiole (Dill)

> <preferred_name>


> <iupac>


> <MPID>
20965

> <dsstox_substance_id>
DTXSID80862007

> <Canonical_QSARr>
COc1c(OC)c(CC=C)cc2OCOc12

> <InChI_Code_QSARr>
InChI=1S/C12H14O4/c1-4-5-8-6-9-11(16-7-15-9)12(14-3)10(8)13-2/h4,6H,1,5,7H2,2-3H3

> <InChI Key_QSARr>
LIKYNOPXHGPMIH-UHFFFAOYSA-N

> <Salt_Solvent>
?

> <BP>
285.0

$$$$
101928
  -INDIGO-08031720192D

 23 23  0  0  0  0  0  0  0  0999 V2000
    0.0000    0.0001    0.0000 C   0  0  0  0  0  0  0  0  0  0  0  0
    1.3857    0.8000    0.0000 C   0  0  0  0  0  0  0  0  0  0  0  0
    1.3857    2.4000    0.0000 H   0  0  0  0  0  0  0  0  0  0  0  0
    2.7713    0.0001    0.0000 C   0  0  0  0  0  0  0  0  0  0  0  0
    4.1570    0.8000    0.0000 C   0  0  0  0  0  0  0  0  0  0  0  0
    5.5426    1.6001    0.0000 H   0  0  0  0  0  0  0  0  0  0  0  0
    5.5426    0.0001    0.0000 H   0  0  0  0  0  0  0  0  0  0  0  0
    4.1570    2.4000    0.0000 H   0  0  0  0  0  0  0  0  0  0  0  0
    2.7713   -1.5999    0.0000 C   0  0  0  0  0  0  0  0  0  0  0  0
    4.1570   -2.4000    0.0000 H   0  0  0  0  0  0  0  0  0  0  0  0
    1.3857   -2.4000    0.0000 C   0  0  0  0  0  0  0  0  0  0  0  0
    1.3857   -4.0000    0.0000 C   0  0  0  0  0  0  0  0  0  0  0  0
    1.3856   -5.6000    0.0000 H   0  0  0  0  0  0  0  0  0  0  0  0
    2.7713   -4.8001    0.0000 H   0  0  0  0  0  0  0  0  0  0  0  0
    0.0000   -4.8001    0.0000 H   0  0  0  0  0  0  0  0  0  0  0  0
    0.0000   -1.5999    0.0000 C   0  0  0  0  0  0  0  0  0  0  0  0
   -1.3857   -2.4000    0.0000 C   0  0  0  0  0  0  0  0  0  0  0  0
   -1.3857   -4.0000    0.0000 H   0  0  0  0  0  0  0  0  0  0  0  0
   -2.7713   -1.5999    0.0000 O   0  0  0  0  0  0  0  0  0  0  0  0
   -1.3857    0.8000    0.0000 C   0  0  0  0  0  0  0  0  0  0  0  0
   -2.7713    1.6001    0.0000 H   0  0  0  0  0  0  0  0  0  0  0  0
   -1.3857    2.4000    0.0000 H   0  0  0  0  0  0  0  0  0  0  0  0
   -2.7713    0.0001    0.0000 H   0  0  0  0  0  0  0  0  0  0  0  0
  1  2  1  0  0  0  0
  2  3  1  0  0  0  0
  2  4  2  0  0  0  0
  4  5  1  0  0  0  0
  5  6  1  0  0  0  0
  5  7  1  0  0  0  0
  5  8  1  0  0  0  0
  4  9  1  0  0  0  0
  9 10  1  0  0  0  0
  9 11  2  0  0  0  0
 11 12  1  0  0  0  0
 12 13  1  0  0  0  0
 12 14  1  0  0  0  0
 12 15  1  0  0  0  0
 11 16  1  0  0  0  0
 16  1  2  0  0  0  0
 16 17  1  0  0  0  0
 17 18  1  0  0  0  0
 17 19  2  0  0  0  0
  1 20  1  0  0  0  0
 20 21  1  0  0  0  0
 20 22  1  0  0  0  0
 20 23  1  0  0  0  0
M  END
> <ChemID>
101928

> <source_casrn>
487-68-3

> <CAS>
487-68-3

> <SMILES>
Cc1cc(C)c(C=O)c(C)c1

> <NAME>
Benzaldehyde, 2,4,6-trimethyl-

> <preferred_name>
2,4,6-Trimethylbenzaldehyde

> <iupac>
2,4,6-trimethylbenzaldehyde

> <MPID>
20969

> <dsstox_substance_id>
DTXSID5052125

> <Canonical_QSARr>
Cc1cc(C)c(C=O)c(C)c1

> <InChI_Code_QSARr>
InChI=1S/C10H12O/c1-7-4-8(2)10(6-11)9(3)5-7/h4-6H,1-3H3

> <InChI Key_QSARr>
HIKRJHFHGKZKRI-UHFFFAOYSA-N

> <Salt_Solvent>
?

> <BP>
238.5

$$$$
101932
  -INDIGO-08031720192D

 25 25  0  0  0  0  0  0  0  0999 V2000
   -2.7712    3.2000    0.0000 O   0  0  0  0  0  0  0  0  0  0  0  0
   -2.7712    4.8000    0.0000 H   0  0  0  0  0  0  0  0  0  0  0  0
   -1.3856    2.4001    0.0000 C   0  0  0  0  0  0  0  0  0  0  0  0
   -1.3856    0.7999    0.0000 C   0  0  0  0  0  0  0  0  0  0  0  0
   -2.7712    0.0000    0.0000 C   0  0  0  0  0  0  0  0  0  0  0  0
   -4.1569   -0.8001    0.0000 H   0  0  0  0  0  0  0  0  0  0  0  0
   -4.1569    0.7999    0.0000 H   0  0  0  0  0  0  0  0  0  0  0  0
   -2.7713   -1.6000    0.0000 H   0  0  0  0  0  0  0  0  0  0  0  0
    0.0001    0.0000    0.0000 C   0  0  0  0  0  0  0  0  0  0  0  0
    0.0001   -1.6000    0.0000 C   0  0  0  0  0  0  0  0  0  0  0  0
    0.0001   -3.2000    0.0000 H   0  0  0  0  0  0  0  0  0  0  0  0
   -1.3856   -2.4001    0.0000 H   0  0  0  0  0  0  0  0  0  0  0  0
    1.3856   -2.4001    0.0000 H   0  0  0  0  0  0  0  0  0  0  0  0
    1.3856    0.8001    0.0000 C   0  0  0  0  0  0  0  0  0  0  0  0
    2.7713    0.0000    0.0000 C   0  0  0  0  0  0  0  0  0  0  0  0
    4.1569   -0.7999    0.0000 H   0  0  0  0  0  0  0  0  0  0  0  0
    4.1569    0.8001    0.0000 H   0  0  0  0  0  0  0  0  0  0  0  0
    2.7713   -1.6000    0.0000 H   0  0  0  0  0  0  0  0  0  0  0  0
    1.3856    2.4001    0.0000 C   0  0  0  0  0  0  0  0  0  0  0  0
    2.7713    3.2000    0.0000 C   0  0  0  0  0  0  0  0  0  0  0  0
    4.1569    4.0001    0.0000 H   0  0  0  0  0  0  0  0  0  0  0  0
    2.7713    4.8000    0.0000 H   0  0  0  0  0  0  0  0  0  0  0  0
    4.1569    2.4001    0.0000 H   0  0  0  0  0  0  0  0  0  0  0  0
    0.0001    3.2000    0.0000 C   0  0  0  0  0  0  0  0  0  0  0  0
   -0.0001    4.8000    0.0000 H   0  0  0  0  0  0  0  0  0  0  0  0
  1  2  1  0  0  0  0
  1  3  1  0  0  0  0
  3  4  1  0  0  0  0
  4  5  1  0  0  0  0
  5  6  1  0  0  0  0
  5  7  1  0  0  0  0
  5  8  1  0  0  0  0
  4  9  2  0  0  0  0
  9 10  1  0  0  0  0
 10 11  1  0  0  0  0
 10 12  1  0  0  0  0
 10 13  1  0  0  0  0
  9 14  1  0  0  0  0
 14 15  1  0  0  0  0
 15 16  1  0  0  0  0
 15 17  1  0  0  0  0
 15 18  1  0  0  0  0
 14 19  2  0  0  0  0
 19 20  1  0  0  0  0
 20 21  1  0  0  0  0
 20 22  1  0  0  0  0
 20 23  1  0  0  0  0
 19 24  1  0  0  0  0
 24  3  2  0  0  0  0
 24 25  1  0  0  0  0
M  END
> <ChemID>
101932

> <source_casrn>
488-70-0

> <CAS>
488-70-0

> <SMILES>
Cc1cc(O)c(C)c(C)c1C

> <NAME>
Phenol, 2,3,4,5-tetramethyl-

> <preferred_name>
Phenol, 2,3,4,5-tetramethyl-

> <iupac>
2,3,4,5-Tetramethylphenol

> <MPID>
20973

> <dsstox_substance_id>
DTXSID4060074

> <Canonical_QSARr>
Cc1cc(O)c(C)c(C)c1C

> <InChI_Code_QSARr>
InChI=1S/C10H14O/c1-6-5-10(11)9(4)8(3)7(6)2/h5,11H,1-4H3

> <InChI Key_QSARr>
PXSSNPBEHHJLDH-UHFFFAOYSA-N

> <Salt_Solvent>
?

> <BP>
266.0

$$$$
101937
  -INDIGO-08031720192D

 17 18  0  0  0  0  0  0  0  0999 V2000
    1.3856    4.0000    0.0000 O   0  0  0  0  0  0  0  0  0  0  0  0
    1.3856    2.4000    0.0000 C   0  0  0  0  0  0  0  0  0  0  0  0
    2.7713    1.6000    0.0000 O   0  0  0  0  0  0  0  0  0  0  0  0
    2.7713    0.0000    0.0000 C   0  0  0  0  0  0  0  0  0  0  0  0
    4.1569   -0.8000    0.0000 H   0  0  0  0  0  0  0  0  0  0  0  0
    1.3856   -0.8000    0.0000 C   0  0  0  0  0  0  0  0  0  0  0  0
    1.3856   -2.4000    0.0000 H   0  0  0  0  0  0  0  0  0  0  0  0
    0.0001    0.0000    0.0000 C   0  0  0  0  0  0  0  0  0  0  0  0
   -1.3856   -0.8000    0.0000 C   0  0  0  0  0  0  0  0  0  0  0  0
   -1.3856   -2.4000    0.0000 H   0  0  0  0  0  0  0  0  0  0  0  0
   -2.7712    0.0000    0.0000 C   0  0  0  0  0  0  0  0  0  0  0  0
   -4.1569   -0.8000    0.0000 H   0  0  0  0  0  0  0  0  0  0  0  0
   -2.7713    1.6000    0.0000 C   0  0  0  0  0  0  0  0  0  0  0  0
   -4.1569    2.4000    0.0000 H   0  0  0  0  0  0  0  0  0  0  0  0
   -1.3856    2.4000    0.0000 C   0  0  0  0  0  0  0  0  0  0  0  0
   -1.3856    4.0000    0.0000 H   0  0  0  0  0  0  0  0  0  0  0  0
    0.0001    1.6000    0.0000 C   0  0  0  0  0  0  0  0  0  0  0  0
  1  2  2  0  0  0  0
  2  3  1  0  0  0  0
  3  4  1  0  0  0  0
  4  5  1  0  0  0  0
  4  6  2  0  0  0  0
  6  7  1  0  0  0  0
  6  8  1  0  0  0  0
  8  9  1  0  0  0  0
  9 10  1  0  0  0  0
  9 11  2  0  0  0  0
 11 12  1  0  0  0  0
 11 13  1  0  0  0  0
 13 14  1  0  0  0  0
 13 15  2  0  0  0  0
 15 16  1  0  0  0  0
 15 17  1  0  0  0  0
 17  2  1  0  0  0  0
 17  8  2  0  0  0  0
M  END
> <ChemID>
101937

> <source_casrn>
491-31-6

> <CAS>
491-31-6

> <SMILES>
O=C1OC=Cc2ccccc21

> <NAME>
1H-2-Benzopyran-1-one

> <preferred_name>
1H-2-Benzopyran-1-one

> <iupac>
isochromen-1-one

> <MPID>
20977

> <dsstox_substance_id>
DTXSID8060080

> <Canonical_QSARr>
O=C1OC=Cc2ccccc21

> <InChI_Code_QSARr>
InChI=1S/C9H6O2/c10-9-8-4-2-1-3-7(8)5-6-11-9/h1-6H

> <InChI Key_QSARr>
IQZZFVDIZRWADY-UHFFFAOYSA-N

> <Salt_Solvent>
?

> <BP>
286.0

$$$$
101941
  -INDIGO-08031720192D

 23 25  0  0  0  0  0  0  0  0999 V2000
    0.0001    1.6000    0.0000 C   0  0  0  0  0  0  0  0  0  0  0  0
    1.3857    2.4000    0.0000 S   0  0  0  0  0  0  0  0  0  0  0  0
    2.7712    1.6000    0.0000 C   0  0  0  0  0  0  0  0  0  0  0  0
    4.1569    2.4000    0.0000 C   0  0  0  0  0  0  0  0  0  0  0  0
    4.1569    4.0000    0.0000 H   0  0  0  0  0  0  0  0  0  0  0  0
    5.5425    1.6000    0.0000 C   0  0  0  0  0  0  0  0  0  0  0  0
    6.9282    2.4000    0.0000 H   0  0  0  0  0  0  0  0  0  0  0  0
    5.5425    0.0000    0.0000 C   0  0  0  0  0  0  0  0  0  0  0  0
    6.9282   -0.8000    0.0000 H   0  0  0  0  0  0  0  0  0  0  0  0
    4.1569   -0.8000    0.0000 C   0  0  0  0  0  0  0  0  0  0  0  0
    4.1569   -2.4000    0.0000 H   0  0  0  0  0  0  0  0  0  0  0  0
    2.7712    0.0000    0.0000 C   0  0  0  0  0  0  0  0  0  0  0  0
    1.3857   -0.8000    0.0000 C   0  0  0  0  0  0  0  0  0  0  0  0
    1.3857   -2.4000    0.0000 O   0  0  0  0  0  0  0  0  0  0  0  0
    0.0001    0.0000    0.0000 C   0  0  0  0  0  0  0  0  0  0  0  0
   -1.3856   -0.8000    0.0000 C   0  0  0  0  0  0  0  0  0  0  0  0
   -1.3856   -2.4000    0.0000 H   0  0  0  0  0  0  0  0  0  0  0  0
   -2.7713    0.0000    0.0000 C   0  0  0  0  0  0  0  0  0  0  0  0
   -4.1569   -0.8000    0.0000 H   0  0  0  0  0  0  0  0  0  0  0  0
   -2.7713    1.6000    0.0000 C   0  0  0  0  0  0  0  0  0  0  0  0
   -4.1569    2.4000    0.0000 H   0  0  0  0  0  0  0  0  0  0  0  0
   -1.3856    2.4000    0.0000 C   0  0  0  0  0  0  0  0  0  0  0  0
   -1.3856    4.0000    0.0000 H   0  0  0  0  0  0  0  0  0  0  0  0
  1  2  1  0  0  0  0
  2  3  1  0  0  0  0
  3  4  1  0  0  0  0
  4  5  1  0  0  0  0
  4  6  2  0  0  0  0
  6  7  1  0  0  0  0
  6  8  1  0  0  0  0
  8  9  1  0  0  0  0
  8 10  2  0  0  0  0
 10 11  1  0  0  0  0
 10 12  1  0  0  0  0
 12  3  2  0  0  0  0
 12 13  1  0  0  0  0
 13 14  2  0  0  0  0
 13 15  1  0  0  0  0
 15  1  1  0  0  0  0
 15 16  2  0  0  0  0
 16 17  1  0  0  0  0
 16 18  1  0  0  0  0
 18 19  1  0  0  0  0
 18 20  2  0  0  0  0
 20 21  1  0  0  0  0
 20 22  1  0  0  0  0
 22  1  2  0  0  0  0
 22 23  1  0  0  0  0
M  END
> <ChemID>
101941

> <source_casrn>
492-22-8

> <CAS>
492-22-8

> <SMILES>
O=C1c2ccccc2Sc2ccccc21

> <NAME>
9H-THIOXANTHEN-9-ONE

> <preferred_name>
Thioxanthone

> <iupac>
Thioxanthen-9-one

> <MPID>
20981

> <dsstox_substance_id>
DTXSID8060082

> <Canonical_QSARr>
O=C1c2ccccc2Sc2ccccc21

> <InChI_Code_QSARr>
InChI=1S/C13H8OS/c14-13-9-5-1-3-7-11(9)15-12-8-4-2-6-10(12)13/h1-8H

> <InChI Key_QSARr>
YRHRIQCWCFGUEQ-UHFFFAOYSA-N

> <Salt_Solvent>
?

> <BP>
373.0

$$$$
101945
  -INDIGO-08031720192D

 16 17  0  0  0  0  0  0  0  0999 V2000
    1.0706   -1.1890    0.0000 S   0  0  0  0  0  0  0  0  0  0  0  0
    2.5322   -0.5383    0.0000 C   0  0  0  0  0  0  0  0  0  0  0  0
    3.9179   -1.3382    0.0000 H   0  0  0  0  0  0  0  0  0  0  0  0
    2.3651    1.0530    0.0000 C   0  0  0  0  0  0  0  0  0  0  0  0
    3.5541    2.1236    0.0000 H   0  0  0  0  0  0  0  0  0  0  0  0
    0.8000    1.3856    0.0000 C   0  0  0  0  0  0  0  0  0  0  0  0
    0.1492    2.8473    0.0000 H   0  0  0  0  0  0  0  0  0  0  0  0
   -0.0001    0.0000    0.0000 C   0  0  0  0  0  0  0  0  0  0  0  0
   -1.5912   -0.1672    0.0000 C   0  0  0  0  0  0  0  0  0  0  0  0
   -2.6618    1.0218    0.0000 C   0  0  0  0  0  0  0  0  0  0  0  0
   -2.3293    2.5869    0.0000 H   0  0  0  0  0  0  0  0  0  0  0  0
   -4.1235    0.3710    0.0000 C   0  0  0  0  0  0  0  0  0  0  0  0
   -5.5092    1.1710    0.0000 H   0  0  0  0  0  0  0  0  0  0  0  0
   -3.9563   -1.2202    0.0000 C   0  0  0  0  0  0  0  0  0  0  0  0
   -5.1454   -2.2908    0.0000 H   0  0  0  0  0  0  0  0  0  0  0  0
   -2.3913   -1.5529    0.0000 S   0  0  0  0  0  0  0  0  0  0  0  0
  1  2  1  0  0  0  0
  2  3  1  0  0  0  0
  2  4  2  0  0  0  0
  4  5  1  0  0  0  0
  4  6  1  0  0  0  0
  6  7  1  0  0  0  0
  6  8  2  0  0  0  0
  8  1  1  0  0  0  0
  8  9  1  0  0  0  0
  9 10  2  0  0  0  0
 10 11  1  0  0  0  0
 10 12  1  0  0  0  0
 12 13  1  0  0  0  0
 12 14  2  0  0  0  0
 14 15  1  0  0  0  0
 14 16  1  0  0  0  0
 16  9  1  0  0  0  0
M  END
> <ChemID>
101945

> <source_casrn>
492-97-7

> <CAS>
492-97-7

> <SMILES>
c1cc[s]c1-c1ccc[s]1

> <NAME>
2,2'-BITHIOPHENE

> <preferred_name>
2,2'-Bithiophene

> <iupac>
2-thiophen-2-ylthiophene

> <MPID>
20985

> <dsstox_substance_id>
DTXSID8060084

> <Canonical_QSARr>
c1cc[s]c1-c1ccc[s]1

> <InChI_Code_QSARr>
InChI=1S/C8H6S2/c1-3-7(9-5-1)8-4-2-6-10-8/h1-6H

> <InChI Key_QSARr>
OHZAHWOAMVVGEL-UHFFFAOYSA-N

> <Salt_Solvent>
?

> <BP>
260.0

$$$$
101951
  -INDIGO-08031720192D

 23 24  0  0  0  0  0  0  0  0999 V2000
   -2.4323   -1.5796    0.0000 C   0  0  0  0  0  0  0  0  0  0  0  0
   -1.6811   -2.9922    0.0000 H   0  0  0  0  0  0  0  0  0  0  0  0
   -4.0313   -1.5237    0.0000 N   0  0  0  0  0  0  0  0  0  0  0  0
   -4.7825   -0.1110    0.0000 C   0  0  0  0  0  0  0  0  0  0  0  0
   -6.3815   -0.0551    0.0000 H   0  0  0  0  0  0  0  0  0  0  0  0
   -3.9346    1.2458    0.0000 C   0  0  0  0  0  0  0  0  0  0  0  0
   -4.6857    2.6586    0.0000 H   0  0  0  0  0  0  0  0  0  0  0  0
   -2.3355    1.1900    0.0000 C   0  0  0  0  0  0  0  0  0  0  0  0
   -1.4878    2.5469    0.0000 H   0  0  0  0  0  0  0  0  0  0  0  0
   -1.5844   -0.2227    0.0000 C   0  0  0  0  0  0  0  0  0  0  0  0
    0.0000    0.0000    0.0000 C   0  0  0  0  0  0  0  0  0  0  0  0
   -0.6508    1.4617    0.0000 H   0  0  0  0  0  0  0  0  0  0  0  0
    0.3327   -1.5650    0.0000 N   0  0  0  0  0  0  0  0  0  0  0  0
   -0.7379   -2.7540    0.0000 H   0  0  0  0  0  0  0  0  0  0  0  0
    1.9238   -1.7322    0.0000 C   0  0  0  0  0  0  0  0  0  0  0  0
    1.5912   -3.2973    0.0000 H   0  0  0  0  0  0  0  0  0  0  0  0
    3.4455   -2.2267    0.0000 H   0  0  0  0  0  0  0  0  0  0  0  0
    2.5746   -0.2706    0.0000 C   0  0  0  0  0  0  0  0  0  0  0  0
    3.9603   -1.0706    0.0000 H   0  0  0  0  0  0  0  0  0  0  0  0
    3.5151    1.0238    0.0000 H   0  0  0  0  0  0  0  0  0  0  0  0
    1.3857    0.8000    0.0000 C   0  0  0  0  0  0  0  0  0  0  0  0
    2.5746    1.8707    0.0000 H   0  0  0  0  0  0  0  0  0  0  0  0
    0.4452    2.0944    0.0000 H   0  0  0  0  0  0  0  0  0  0  0  0
  1  2  1  0  0  0  0
  1  3  1  0  0  0  0
  3  4  2  0  0  0  0
  4  5  1  0  0  0  0
  4  6  1  0  0  0  0
  6  7  1  0  0  0  0
  6  8  2  0  0  0  0
  8  9  1  0  0  0  0
  8 10  1  0  0  0  0
 10  1  2  0  0  0  0
 10 11  1  0  0  0  0
 11 12  1  0  0  0  0
 11 13  1  0  0  0  0
 13 14  1  0  0  0  0
 13 15  1  0  0  0  0
 15 16  1  0  0  0  0
 15 17  1  0  0  0  0
 15 18  1  0  0  0  0
 18 19  1  0  0  0  0
 18 20  1  0  0  0  0
 18 21  1  0  0  0  0
 21 11  1  0  0  0  0
 21 22  1  0  0  0  0
 21 23  1  0  0  0  0
M  END
> <ChemID>
101951

> <source_casrn>
494-97-3

> <CAS>
494-97-3

> <SMILES>
C1CC[C@H](N1)c1c[n]ccc1

> <NAME>
NORNICOTINE

> <preferred_name>
Pyridine, 3-(2S)-2-pyrrolidinyl-

> <iupac>
3-[(2S)-pyrrolidin-2-yl]pyridine

> <MPID>
20991

> <dsstox_substance_id>
DTXSID7075420

> <Canonical_QSARr>
C1CCC(N1)c1c[n]ccc1

> <InChI_Code_QSARr>
InChI=1S/C9H12N2/c1-3-8(7-10-5-1)9-4-2-6-11-9/h1,3,5,7,9,11H,2,4,6H2

> <InChI Key_QSARr>
MYKUKUCHPMASKF-UHFFFAOYSA-N

> <Salt_Solvent>
?

> <BP>
270.0

$$$$
101955
  -INDIGO-08031720192D

 31 32  0  0  0  0  0  0  0  0999 V2000
   -2.7713    0.0000    0.0000 C   0  0  0  0  0  0  0  0  0  0  0  0
   -1.3855   -0.8001    0.0000 C   0  0  0  0  0  0  0  0  0  0  0  0
   -1.3855   -2.4001    0.0000 H   0  0  0  0  0  0  0  0  0  0  0  0
    0.0000    0.0000    0.0000 C   0  0  0  0  0  0  0  0  0  0  0  0
    0.0000    1.6000    0.0000 C   0  0  0  0  0  0  0  0  0  0  0  0
    0.0000    3.2000    0.0000 H   0  0  0  0  0  0  0  0  0  0  0  0
   -1.3855    2.4001    0.0000 H   0  0  0  0  0  0  0  0  0  0  0  0
    1.3857    2.4001    0.0000 H   0  0  0  0  0  0  0  0  0  0  0  0
    1.3857   -0.7999    0.0000 C   0  0  0  0  0  0  0  0  0  0  0  0
    2.7713    0.0000    0.0000 C   0  0  0  0  0  0  0  0  0  0  0  0
    2.7713    1.6000    0.0000 H   0  0  0  0  0  0  0  0  0  0  0  0
    4.1570   -0.7999    0.0000 C   0  0  0  0  0  0  0  0  0  0  0  0
    5.5426    0.0000    0.0000 H   0  0  0  0  0  0  0  0  0  0  0  0
    4.1570   -2.3999    0.0000 C   0  0  0  0  0  0  0  0  0  0  0  0
    5.5426   -3.2000    0.0000 H   0  0  0  0  0  0  0  0  0  0  0  0
    2.7713   -3.2000    0.0000 C   0  0  0  0  0  0  0  0  0  0  0  0
    2.7713   -4.8000    0.0000 H   0  0  0  0  0  0  0  0  0  0  0  0
    1.3857   -2.3999    0.0000 C   0  0  0  0  0  0  0  0  0  0  0  0
    0.0000   -3.2000    0.0000 H   0  0  0  0  0  0  0  0  0  0  0  0
   -2.7713    1.6000    0.0000 O   0  0  0  0  0  0  0  0  0  0  0  0
   -4.1568   -0.7999    0.0000 C   0  0  0  0  0  0  0  0  0  0  0  0
   -4.1568   -2.4001    0.0000 C   0  0  0  0  0  0  0  0  0  0  0  0
   -2.7713   -3.2000    0.0000 H   0  0  0  0  0  0  0  0  0  0  0  0
   -5.5426   -3.2000    0.0000 C   0  0  0  0  0  0  0  0  0  0  0  0
   -5.5426   -4.8000    0.0000 H   0  0  0  0  0  0  0  0  0  0  0  0
   -6.9281   -2.3999    0.0000 C   0  0  0  0  0  0  0  0  0  0  0  0
   -8.3138   -3.2000    0.0000 H   0  0  0  0  0  0  0  0  0  0  0  0
   -6.9281   -0.7999    0.0000 C   0  0  0  0  0  0  0  0  0  0  0  0
   -8.3138    0.0000    0.0000 H   0  0  0  0  0  0  0  0  0  0  0  0
   -5.5426    0.0000    0.0000 C   0  0  0  0  0  0  0  0  0  0  0  0
   -5.5426    1.6000    0.0000 H   0  0  0  0  0  0  0  0  0  0  0  0
  1  2  1  0  0  0  0
  2  3  1  0  0  0  0
  2  4  2  0  0  0  0
  4  5  1  0  0  0  0
  5  6  1  0  0  0  0
  5  7  1  0  0  0  0
  5  8  1  0  0  0  0
  4  9  1  0  0  0  0
  9 10  1  0  0  0  0
 10 11  1  0  0  0  0
 10 12  2  0  0  0  0
 12 13  1  0  0  0  0
 12 14  1  0  0  0  0
 14 15  1  0  0  0  0
 14 16  2  0  0  0  0
 16 17  1  0  0  0  0
 16 18  1  0  0  0  0
 18  9  2  0  0  0  0
 18 19  1  0  0  0  0
  1 20  2  0  0  0  0
  1 21  1  0  0  0  0
 21 22  1  0  0  0  0
 22 23  1  0  0  0  0
 22 24  2  0  0  0  0
 24 25  1  0  0  0  0
 24 26  1  0  0  0  0
 26 27  1  0  0  0  0
 26 28  2  0  0  0  0
 28 29  1  0  0  0  0
 28 30  1  0  0  0  0
 30 21  2  0  0  0  0
 30 31  1  0  0  0  0
M  END
> <ChemID>
101955

> <source_casrn>
495-45-4

> <CAS>
NOCAS_870560

> <SMILES>
CC(=CC(=O)c1ccccc1)c1ccccc1

> <NAME>
2-BUTEN-1-ONE, 1,3-DIPHENYL-

> <preferred_name>


> <iupac>


> <MPID>
20995

> <dsstox_substance_id>
DTXSID20870560

> <Canonical_QSARr>
CC(=CC(=O)c1ccccc1)c1ccccc1

> <InChI_Code_QSARr>
InChI=1S/C16H14O/c1-13(14-8-4-2-5-9-14)12-16(17)15-10-6-3-7-11-15/h2-12H,1H3/b13-12+

> <InChI Key_QSARr>
PLELHVCQAULGBH-OUKQBFOZSA-N

> <Salt_Solvent>
?

> <BP>
342.5

$$$$
101959
  -INDIGO-08031720192D

 18 19  0  0  0  0  0  0  0  0999 V2000
    1.5217    2.0944    0.0000 C   0  0  0  0  0  0  0  0  0  0  0  0
    2.9073    2.8944    0.0000 C   0  0  0  0  0  0  0  0  0  0  0  0
    2.9073    4.4944    0.0000 H   0  0  0  0  0  0  0  0  0  0  0  0
    4.2930    2.0944    0.0000 C   0  0  0  0  0  0  0  0  0  0  0  0
    5.6786    2.8944    0.0000 H   0  0  0  0  0  0  0  0  0  0  0  0
    4.2930    0.4945    0.0000 C   0  0  0  0  0  0  0  0  0  0  0  0
    5.6786   -0.3055    0.0000 H   0  0  0  0  0  0  0  0  0  0  0  0
    2.9073   -0.3055    0.0000 C   0  0  0  0  0  0  0  0  0  0  0  0
    2.9073   -1.9056    0.0000 H   0  0  0  0  0  0  0  0  0  0  0  0
    1.5217    0.4945    0.0000 C   0  0  0  0  0  0  0  0  0  0  0  0
   -0.0000    0.0000    0.0000 C   0  0  0  0  0  0  0  0  0  0  0  0
    0.6507   -1.4617    0.0000 H   0  0  0  0  0  0  0  0  0  0  0  0
   -1.3857   -0.8000    0.0000 H   0  0  0  0  0  0  0  0  0  0  0  0
   -0.9404    1.2945    0.0000 C   0  0  0  0  0  0  0  0  0  0  0  0
   -2.1295    0.2239    0.0000 H   0  0  0  0  0  0  0  0  0  0  0  0
   -2.1295    2.3650    0.0000 H   0  0  0  0  0  0  0  0  0  0  0  0
   -0.0000    2.5888    0.0000 N   0  0  0  0  0  0  0  0  0  0  0  0
   -0.4945    4.1105    0.0000 H   0  0  0  0  0  0  0  0  0  0  0  0
  1  2  1  0  0  0  0
  2  3  1  0  0  0  0
  2  4  2  0  0  0  0
  4  5  1  0  0  0  0
  4  6  1  0  0  0  0
  6  7  1  0  0  0  0
  6  8  2  0  0  0  0
  8  9  1  0  0  0  0
  8 10  1  0  0  0  0
 10  1  2  0  0  0  0
 10 11  1  0  0  0  0
 11 12  1  0  0  0  0
 11 13  1  0  0  0  0
 11 14  1  0  0  0  0
 14 15  1  0  0  0  0
 14 16  1  0  0  0  0
 14 17  1  0  0  0  0
 17  1  1  0  0  0  0
 17 18  1  0  0  0  0
M  END
> <ChemID>
101959

> <source_casrn>
496-15-1

> <CAS>
496-15-1

> <SMILES>
C1CNc2ccccc21

> <NAME>
1H-Indole, 2,3-dihydro-

> <preferred_name>
Indoline

> <iupac>
indoline

> <MPID>
20999

> <dsstox_substance_id>
DTXSID9052133

> <Canonical_QSARr>
C1CNc2ccccc21

> <InChI_Code_QSARr>
InChI=1S/C8H9N/c1-2-4-8-7(3-1)5-6-9-8/h1-4,9H,5-6H2

> <InChI Key_QSARr>
LPAGFVYQRIESJQ-UHFFFAOYSA-N

> <Salt_Solvent>
?

> <BP>
229.0

$$$$
101963
  -INDIGO-08031720192D

 17 17  0  0  0  0  0  0  0  0999 V2000
    0.0000    1.6000    0.0000 C   0  0  0  0  0  0  0  0  0  0  0  0
    0.0000    0.0000    0.0000 C   0  0  0  0  0  0  0  0  0  0  0  0
    1.3857   -0.8000    0.0000 C   0  0  0  0  0  0  0  0  0  0  0  0
    2.7713   -1.6000    0.0000 H   0  0  0  0  0  0  0  0  0  0  0  0
    1.3857   -2.4000    0.0000 H   0  0  0  0  0  0  0  0  0  0  0  0
    2.7713    0.0000    0.0000 H   0  0  0  0  0  0  0  0  0  0  0  0
   -1.3856   -0.8000    0.0000 C   0  0  0  0  0  0  0  0  0  0  0  0
   -1.3856   -2.4000    0.0000 H   0  0  0  0  0  0  0  0  0  0  0  0
   -2.7713    0.0000    0.0000 C   0  0  0  0  0  0  0  0  0  0  0  0
   -4.1569   -0.8000    0.0000 H   0  0  0  0  0  0  0  0  0  0  0  0
   -2.7713    1.6000    0.0000 C   0  0  0  0  0  0  0  0  0  0  0  0
   -4.1569    2.4000    0.0000 O   0  0  0  0  0  0  0  0  0  0  0  0
   -5.5426    1.6000    0.0000 H   0  0  0  0  0  0  0  0  0  0  0  0
   -1.3856    2.4000    0.0000 C   0  0  0  0  0  0  0  0  0  0  0  0
   -1.3856    4.0000    0.0000 H   0  0  0  0  0  0  0  0  0  0  0  0
    1.3857    2.4000    0.0000 O   0  0  0  0  0  0  0  0  0  0  0  0
    1.3857    4.0000    0.0000 H   0  0  0  0  0  0  0  0  0  0  0  0
  1  2  1  0  0  0  0
  2  3  1  0  0  0  0
  3  4  1  0  0  0  0
  3  5  1  0  0  0  0
  3  6  1  0  0  0  0
  2  7  2  0  0  0  0
  7  8  1  0  0  0  0
  7  9  1  0  0  0  0
  9 10  1  0  0  0  0
  9 11  2  0  0  0  0
 11 12  1  0  0  0  0
 12 13  1  0  0  0  0
 11 14  1  0  0  0  0
 14  1  2  0  0  0  0
 14 15  1  0  0  0  0
  1 16  1  0  0  0  0
 16 17  1  0  0  0  0
M  END
> <ChemID>
101963

> <source_casrn>
496-73-1

> <CAS>
496-73-1

> <SMILES>
Cc1ccc(O)cc1O

> <NAME>
1,3-Benzenediol, 4-methyl-

> <preferred_name>
1,3-Benzenediol, 4-methyl-

> <iupac>
4-methylbenzene-1,3-diol

> <MPID>
21003

> <dsstox_substance_id>
DTXSID2060092

> <Canonical_QSARr>
Cc1ccc(O)cc1O

> <InChI_Code_QSARr>
InChI=1S/C7H8O2/c1-5-2-3-6(8)4-7(5)9/h2-4,8-9H,1H3

> <InChI Key_QSARr>
FNYDIAAMUCQQDE-UHFFFAOYSA-N

> <Salt_Solvent>
?

> <BP>
268.5

$$$$
101967
  -INDIGO-08031720192D

 14 14  0  0  0  0  0  0  0  0999 V2000
   -0.0000    0.0000    0.0000 C   0  0  0  0  0  0  0  0  0  0  0  0
    0.6508    1.4617    0.0000 H   0  0  0  0  0  0  0  0  0  0  0  0
   -0.3326   -1.5650    0.0000 O   0  0  0  0  0  0  0  0  0  0  0  0
   -1.9239   -1.7323    0.0000 C   0  0  0  0  0  0  0  0  0  0  0  0
   -1.5912   -3.2973    0.0000 H   0  0  0  0  0  0  0  0  0  0  0  0
   -3.4456   -2.2267    0.0000 H   0  0  0  0  0  0  0  0  0  0  0  0
   -2.5746   -0.2706    0.0000 C   0  0  0  0  0  0  0  0  0  0  0  0
   -3.9603   -1.0706    0.0000 H   0  0  0  0  0  0  0  0  0  0  0  0
   -3.5151    1.0238    0.0000 H   0  0  0  0  0  0  0  0  0  0  0  0
   -1.3856    0.8000    0.0000 O   0  0  0  0  0  0  0  0  0  0  0  0
    1.5217   -0.4944    0.0000 C   0  0  0  0  0  0  0  0  0  0  0  0
    3.0434   -0.9889    0.0000 H   0  0  0  0  0  0  0  0  0  0  0  0
    2.7107    0.5762    0.0000 H   0  0  0  0  0  0  0  0  0  0  0  0
    1.8544   -2.0595    0.0000 H   0  0  0  0  0  0  0  0  0  0  0  0
  1  2  1  0  0  0  0
  1  3  1  0  0  0  0
  3  4  1  0  0  0  0
  4  5  1  0  0  0  0
  4  6  1  0  0  0  0
  4  7  1  0  0  0  0
  7  8  1  0  0  0  0
  7  9  1  0  0  0  0
  7 10  1  0  0  0  0
 10  1  1  0  0  0  0
  1 11  1  0  0  0  0
 11 12  1  0  0  0  0
 11 13  1  0  0  0  0
 11 14  1  0  0  0  0
M  END
> <ChemID>
101967

> <source_casrn>
497-26-7

> <CAS>
497-26-7

> <SMILES>
CC1OCCO1

> <NAME>
1,3-Dioxolane, 2-methyl-

> <preferred_name>
2-Methyl-1,3-dioxolane

> <iupac>
2-Methyl-1,3-dioxolane

> <MPID>
21007

> <dsstox_substance_id>
DTXSID7060095

> <Canonical_QSARr>
CC1OCCO1

> <InChI_Code_QSARr>
InChI=1S/C4H8O2/c1-4-5-2-3-6-4/h4H,2-3H2,1H3

> <InChI Key_QSARr>
HTWIZMNMTWYQRN-UHFFFAOYSA-N

> <Salt_Solvent>
?

> <BP>
81.5

$$$$
101971
  -INDIGO-08031720192D

 22 22  0  0  0  0  0  0  0  0999 V2000
   -2.7712   -0.0000    0.0000 C   0  0  0  0  0  0  0  0  0  0  0  0
   -1.3856    0.8000    0.0000 C   0  0  0  0  0  0  0  0  0  0  0  0
   -1.3856    2.4000    0.0000 H   0  0  0  0  0  0  0  0  0  0  0  0
   -0.0001   -0.0000    0.0000 C   0  0  0  0  0  0  0  0  0  0  0  0
    1.3856    0.8000    0.0000 C   0  0  0  0  0  0  0  0  0  0  0  0
    2.7713   -0.0000    0.0000 C   0  0  0  0  0  0  0  0  0  0  0  0
    4.1569   -0.8000    0.0000 H   0  0  0  0  0  0  0  0  0  0  0  0
    4.1569    0.8000    0.0000 H   0  0  0  0  0  0  0  0  0  0  0  0
    2.7713   -1.6000    0.0000 H   0  0  0  0  0  0  0  0  0  0  0  0
    1.3856    2.4000    0.0000 O   0  0  0  0  0  0  0  0  0  0  0  0
   -0.0001   -1.6000    0.0000 C   0  0  0  0  0  0  0  0  0  0  0  0
    1.3856   -2.4000    0.0000 H   0  0  0  0  0  0  0  0  0  0  0  0
   -1.3857   -2.4000    0.0000 C   0  0  0  0  0  0  0  0  0  0  0  0
   -1.3857   -4.0000    0.0000 H   0  0  0  0  0  0  0  0  0  0  0  0
   -2.7712   -1.6000    0.0000 C   0  0  0  0  0  0  0  0  0  0  0  0
   -4.1569   -2.4000    0.0000 O   0  0  0  0  0  0  0  0  0  0  0  0
   -4.1569   -4.0000    0.0000 H   0  0  0  0  0  0  0  0  0  0  0  0
   -4.1569    0.8000    0.0000 O   0  0  0  0  0  0  0  0  0  0  0  0
   -5.5425   -0.0000    0.0000 C   0  0  0  0  0  0  0  0  0  0  0  0
   -6.9282    0.8000    0.0000 H   0  0  0  0  0  0  0  0  0  0  0  0
   -6.9282   -0.8000    0.0000 H   0  0  0  0  0  0  0  0  0  0  0  0
   -5.5425    1.6000    0.0000 H   0  0  0  0  0  0  0  0  0  0  0  0
  1  2  1  0  0  0  0
  2  3  1  0  0  0  0
  2  4  2  0  0  0  0
  4  5  1  0  0  0  0
  5  6  1  0  0  0  0
  6  7  1  0  0  0  0
  6  8  1  0  0  0  0
  6  9  1  0  0  0  0
  5 10  2  0  0  0  0
  4 11  1  0  0  0  0
 11 12  1  0  0  0  0
 11 13  2  0  0  0  0
 13 14  1  0  0  0  0
 13 15  1  0  0  0  0
 15  1  2  0  0  0  0
 15 16  1  0  0  0  0
 16 17  1  0  0  0  0
  1 18  1  0  0  0  0
 18 19  1  0  0  0  0
 19 20  1  0  0  0  0
 19 21  1  0  0  0  0
 19 22  1  0  0  0  0
M  END
> <ChemID>
101971

> <source_casrn>
498-02-2

> <CAS>
498-02-2

> <SMILES>
CC(=O)c1cc(OC)c(O)cc1

> <NAME>
Ethanone, 1-(4-hydroxy-3-methoxyphenyl)-

> <preferred_name>
Acetovanillone

> <iupac>
1-(4-Hydroxy-3-methoxyphenyl)ethanone

> <MPID>
21011

> <dsstox_substance_id>
DTXSID7060097

> <Canonical_QSARr>
CC(=O)c1cc(OC)c(O)cc1

> <InChI_Code_QSARr>
InChI=1S/C9H10O3/c1-6(10)7-3-4-8(11)9(5-7)12-2/h3-5,11H,1-2H3

> <InChI Key_QSARr>
DFYRUELUNQRZTB-UHFFFAOYSA-N

> <Salt_Solvent>
?

> <BP>
297.0

$$$$
101975
  -INDIGO-08031720192D

 25 25  0  0  0  0  0  0  0  0999 V2000
   -2.4001    1.3857    0.0000 C   0  0  0  0  0  0  0  0  0  0  0  0
   -1.6000    2.7713    0.0000 H   0  0  0  0  0  0  0  0  0  0  0  0
   -4.0001    1.3857    0.0000 C   0  0  0  0  0  0  0  0  0  0  0  0
   -4.8000    2.7713    0.0000 O   0  0  0  0  0  0  0  0  0  0  0  0
   -4.0001    4.1569    0.0000 H   0  0  0  0  0  0  0  0  0  0  0  0
   -4.8000   -0.0000    0.0000 C   0  0  0  0  0  0  0  0  0  0  0  0
   -6.4000   -0.0000    0.0000 C   0  0  0  0  0  0  0  0  0  0  0  0
   -8.0000   -0.0000    0.0000 H   0  0  0  0  0  0  0  0  0  0  0  0
   -7.2001   -1.3857    0.0000 H   0  0  0  0  0  0  0  0  0  0  0  0
   -7.2001    1.3857    0.0000 H   0  0  0  0  0  0  0  0  0  0  0  0
   -4.0001   -1.3857    0.0000 C   0  0  0  0  0  0  0  0  0  0  0  0
   -4.8000   -2.7713    0.0000 H   0  0  0  0  0  0  0  0  0  0  0  0
   -2.4001   -1.3857    0.0000 C   0  0  0  0  0  0  0  0  0  0  0  0
   -1.6000   -2.7713    0.0000 H   0  0  0  0  0  0  0  0  0  0  0  0
   -1.6000   -0.0000    0.0000 C   0  0  0  0  0  0  0  0  0  0  0  0
    0.0000   -0.0000    0.0000 C   0  0  0  0  0  0  0  0  0  0  0  0
    0.0000    1.6000    0.0000 H   0  0  0  0  0  0  0  0  0  0  0  0
    1.5757    0.2778    0.0000 C   0  0  0  0  0  0  0  0  0  0  0  0
    3.1514    0.5556    0.0000 H   0  0  0  0  0  0  0  0  0  0  0  0
    2.1229    1.7814    0.0000 H   0  0  0  0  0  0  0  0  0  0  0  0
    2.6042   -0.9479    0.0000 H   0  0  0  0  0  0  0  0  0  0  0  0
    0.0000   -1.6000    0.0000 C   0  0  0  0  0  0  0  0  0  0  0  0
    0.0000   -3.2000    0.0000 H   0  0  0  0  0  0  0  0  0  0  0  0
    1.3856   -2.4000    0.0000 H   0  0  0  0  0  0  0  0  0  0  0  0
    1.3856   -0.8000    0.0000 H   0  0  0  0  0  0  0  0  0  0  0  0
  1  2  1  0  0  0  0
  1  3  1  0  0  0  0
  3  4  1  0  0  0  0
  4  5  1  0  0  0  0
  3  6  2  0  0  0  0
  6  7  1  0  0  0  0
  7  8  1  0  0  0  0
  7  9  1  0  0  0  0
  7 10  1  0  0  0  0
  6 11  1  0  0  0  0
 11 12  1  0  0  0  0
 11 13  2  0  0  0  0
 13 14  1  0  0  0  0
 13 15  1  0  0  0  0
 15  1  2  0  0  0  0
 15 16  1  0  0  0  0
 16 17  1  0  0  0  0
 16 18  1  0  0  0  0
 18 19  1  0  0  0  0
 18 20  1  0  0  0  0
 18 21  1  0  0  0  0
 16 22  1  0  0  0  0
 22 23  1  0  0  0  0
 22 24  1  0  0  0  0
 22 25  1  0  0  0  0
M  END
> <ChemID>
101975

> <source_casrn>
499-75-2

> <CAS>
499-75-2

> <SMILES>
Cc1ccc(cc1O)C(C)C

> <NAME>
Phenol, 2-methyl-5-(1-methylethyl)-

> <preferred_name>
Isopropyl-o-cresol

> <iupac>
2-methyl-5-(propan-2-yl)phenol

> <MPID>
21015

> <dsstox_substance_id>
DTXSID6042074

> <Canonical_QSARr>
Cc1ccc(cc1O)C(C)C

> <InChI_Code_QSARr>
InChI=1S/C10H14O/c1-7(2)9-5-4-8(3)10(11)6-9/h4-7,11H,1-3H3

> <InChI Key_QSARr>
RECUKUPTGUEGMW-UHFFFAOYSA-N

> <Salt_Solvent>
?

> <BP>
237.7

$$$$
101979
  -INDIGO-08031720192D

 20 20  0  0  0  0  0  0  0  0999 V2000
    4.8000   -0.0000    0.0000 O   0  0  0  0  0  0  0  0  0  0  0  0
    5.6000   -1.3856    0.0000 H   0  0  0  0  0  0  0  0  0  0  0  0
    3.2001   -0.0000    0.0000 C   0  0  0  0  0  0  0  0  0  0  0  0
    2.3999    1.3856    0.0000 C   0  0  0  0  0  0  0  0  0  0  0  0
    3.2001    2.7713    0.0000 H   0  0  0  0  0  0  0  0  0  0  0  0
    0.8000    1.3856    0.0000 C   0  0  0  0  0  0  0  0  0  0  0  0
    0.0000    2.7713    0.0000 H   0  0  0  0  0  0  0  0  0  0  0  0
    0.0000   -0.0000    0.0000 C   0  0  0  0  0  0  0  0  0  0  0  0
   -1.5999   -0.0000    0.0000 C   0  0  0  0  0  0  0  0  0  0  0  0
   -1.8088   -1.5863    0.0000 H   0  0  0  0  0  0  0  0  0  0  0  0
   -2.8693   -0.9740    0.0000 H   0  0  0  0  0  0  0  0  0  0  0  0
   -2.4001    1.3856    0.0000 C   0  0  0  0  0  0  0  0  0  0  0  0
   -1.5999    2.7713    0.0000 H   0  0  0  0  0  0  0  0  0  0  0  0
   -4.0000    1.3856    0.0000 C   0  0  0  0  0  0  0  0  0  0  0  0
   -4.8000    2.7713    0.0000 H   0  0  0  0  0  0  0  0  0  0  0  0
   -4.8000   -0.0000    0.0000 H   0  0  0  0  0  0  0  0  0  0  0  0
    0.8000   -1.3856    0.0000 C   0  0  0  0  0  0  0  0  0  0  0  0
    0.0000   -2.7713    0.0000 H   0  0  0  0  0  0  0  0  0  0  0  0
    2.3999   -1.3856    0.0000 C   0  0  0  0  0  0  0  0  0  0  0  0
    3.2001   -2.7713    0.0000 H   0  0  0  0  0  0  0  0  0  0  0  0
  1  2  1  0  0  0  0
  1  3  1  0  0  0  0
  3  4  1  0  0  0  0
  4  5  1  0  0  0  0
  4  6  2  0  0  0  0
  6  7  1  0  0  0  0
  6  8  1  0  0  0  0
  8  9  1  0  0  0  0
  9 10  1  0  0  0  0
  9 11  1  0  0  0  0
  9 12  1  0  0  0  0
 12 13  1  0  0  0  0
 12 14  2  0  0  0  0
 14 15  1  0  0  0  0
 14 16  1  0  0  0  0
  8 17  2  0  0  0  0
 17 18  1  0  0  0  0
 17 19  1  0  0  0  0
 19  3  2  0  0  0  0
 19 20  1  0  0  0  0
M  END
> <ChemID>
101979

> <source_casrn>
501-92-8

> <CAS>
501-92-8

> <SMILES>
C=CCc1ccc(O)cc1

> <NAME>
4-(2-PROPENYL)PHENOL

> <preferred_name>
Chavicol

> <iupac>
4-prop-2-enylphenol

> <MPID>
21019

> <dsstox_substance_id>
DTXSID60198210

> <Canonical_QSARr>
C=CCc1ccc(O)cc1

> <InChI_Code_QSARr>
InChI=1S/C9H10O/c1-2-3-8-4-6-9(10)7-5-8/h2,4-7,10H,1,3H2

> <InChI Key_QSARr>
RGIBXDHONMXTLI-UHFFFAOYSA-N

> <Salt_Solvent>
?

> <BP>
238.0

$$$$
101983
  -INDIGO-08031720192D

 23 23  0  0  0  0  0  0  0  0999 V2000
    4.1452    0.5457    0.0000 C   0  0  0  0  0  0  0  0  0  0  0  0
    3.7311   -0.9998    0.0000 C   0  0  0  0  0  0  0  0  0  0  0  0
    5.3311   -0.9998    0.0000 H   0  0  0  0  0  0  0  0  0  0  0  0
    4.4073   -2.4499    0.0000 H   0  0  0  0  0  0  0  0  0  0  0  0
    2.3455   -1.7998    0.0000 C   0  0  0  0  0  0  0  0  0  0  0  0
    3.4769   -2.9311    0.0000 H   0  0  0  0  0  0  0  0  0  0  0  0
    1.5455   -3.1854    0.0000 H   0  0  0  0  0  0  0  0  0  0  0  0
    0.8000   -1.3856    0.0000 C   0  0  0  0  0  0  0  0  0  0  0  0
    0.5222   -2.9613    0.0000 H   0  0  0  0  0  0  0  0  0  0  0  0
   -0.7454   -1.7998    0.0000 H   0  0  0  0  0  0  0  0  0  0  0  0
    0.0000    0.0000    0.0000 C   0  0  0  0  0  0  0  0  0  0  0  0
   -1.3106   -0.9177    0.0000 H   0  0  0  0  0  0  0  0  0  0  0  0
   -1.3856    0.8000    0.0000 H   0  0  0  0  0  0  0  0  0  0  0  0
    0.4141    1.5455    0.0000 C   0  0  0  0  0  0  0  0  0  0  0  0
   -1.1616    1.8233    0.0000 H   0  0  0  0  0  0  0  0  0  0  0  0
    0.0000    3.0909    0.0000 H   0  0  0  0  0  0  0  0  0  0  0  0
    1.7997    2.3455    0.0000 C   0  0  0  0  0  0  0  0  0  0  0  0
    0.8821    3.6561    0.0000 H   0  0  0  0  0  0  0  0  0  0  0  0
    2.5997    3.7311    0.0000 H   0  0  0  0  0  0  0  0  0  0  0  0
    3.3452    1.9314    0.0000 C   0  0  0  0  0  0  0  0  0  0  0  0
    3.6231    3.5071    0.0000 H   0  0  0  0  0  0  0  0  0  0  0  0
    4.8908    2.3455    0.0000 H   0  0  0  0  0  0  0  0  0  0  0  0
    5.7315    0.7546    0.0000 O   0  0  0  0  0  0  0  0  0  0  0  0
  1  2  1  0  0  0  0
  2  3  1  0  0  0  0
  2  4  1  0  0  0  0
  2  5  1  0  0  0  0
  5  6  1  0  0  0  0
  5  7  1  0  0  0  0
  5  8  1  0  0  0  0
  8  9  1  0  0  0  0
  8 10  1  0  0  0  0
  8 11  1  0  0  0  0
 11 12  1  0  0  0  0
 11 13  1  0  0  0  0
 11 14  1  0  0  0  0
 14 15  1  0  0  0  0
 14 16  1  0  0  0  0
 14 17  1  0  0  0  0
 17 18  1  0  0  0  0
 17 19  1  0  0  0  0
 17 20  1  0  0  0  0
 20  1  1  0  0  0  0
 20 21  1  0  0  0  0
 20 22  1  0  0  0  0
  1 23  2  0  0  0  0
M  END
> <ChemID>
101983

> <source_casrn>
502-49-8

> <CAS>
502-49-8

> <SMILES>
O=C1CCCCCCC1

> <NAME>
CYCLOOCTANONE

> <preferred_name>
Cyclooctanone

> <iupac>
Cyclooctanone

> <MPID>
21023

> <dsstox_substance_id>
DTXSID3060114

> <Canonical_QSARr>
O=C1CCCCCCC1

> <InChI_Code_QSARr>
InChI=1S/C8H14O/c9-8-6-4-2-1-3-5-7-8/h1-7H2

> <InChI Key_QSARr>
IIRFCWANHMSDCG-UHFFFAOYSA-N

> <Salt_Solvent>
?

> <BP>
196.0

$$$$
101987
  -INDIGO-08031720192D

 10  9  0  0  0  0  0  0  0  0999 V2000
    1.6000   -0.0000    0.0000 C   0  0  0  0  0  0  0  0  0  0  0  0
    3.2000    0.0000    0.0000 C   0  0  0  0  0  0  0  0  0  0  0  0
    4.8000    0.0000    0.0000 C   0  0  0  0  0  0  0  0  0  0  0  0
    6.4000    0.0000    0.0000 H   0  0  0  0  0  0  0  0  0  0  0  0
    5.6001    1.3856    0.0000 H   0  0  0  0  0  0  0  0  0  0  0  0
    5.6001   -1.3856    0.0000 H   0  0  0  0  0  0  0  0  0  0  0  0
    0.0000   -0.0000    0.0000 C   0  0  0  0  0  0  0  0  0  0  0  0
   -1.6000   -0.0000    0.0000 H   0  0  0  0  0  0  0  0  0  0  0  0
   -0.8001    1.3856    0.0000 H   0  0  0  0  0  0  0  0  0  0  0  0
   -0.8001   -1.3856    0.0000 H   0  0  0  0  0  0  0  0  0  0  0  0
  1  2  3  0  0  0  0
  2  3  1  0  0  0  0
  3  4  1  0  0  0  0
  3  5  1  0  0  0  0
  3  6  1  0  0  0  0
  1  7  1  0  0  0  0
  7  8  1  0  0  0  0
  7  9  1  0  0  0  0
  7 10  1  0  0  0  0
M  END
> <ChemID>
101987

> <source_casrn>
503-17-3

> <CAS>
503-17-3

> <SMILES>
CC#CC

> <NAME>
2-BUTYNE

> <preferred_name>
2-Butyne

> <iupac>
but-2-yne

> <MPID>
21027

> <dsstox_substance_id>
DTXSID3060116

> <Canonical_QSARr>
CC#CC

> <InChI_Code_QSARr>
InChI=1S/C4H6/c1-3-4-2/h1-2H3

> <InChI Key_QSARr>
XNMQEEKYCVKGBD-UHFFFAOYSA-N

> <Salt_Solvent>
?

> <BP>
26.9

$$$$
101991
  -INDIGO-08031720192D

  8  7  0  0  0  0  0  0  0  0999 V2000
    0.0000    0.0000    0.0000 C   0  0  0  0  0  0  0  0  0  0  0  0
    1.3857   -0.8000    0.0000 O   0  0  0  0  0  0  0  0  0  0  0  0
    2.7713    0.0000    0.0000 C   0  0  0  0  0  0  0  0  0  0  0  0
    4.1569   -0.8000    0.0000 O   0  0  0  0  0  0  0  0  0  0  0  0
    2.7713    1.6000    0.0000 Cl  0  0  0  0  0  0  0  0  0  0  0  0
   -1.3856    0.8000    0.0000 Cl  0  0  0  0  0  0  0  0  0  0  0  0
    0.0000    1.6000    0.0000 Cl  0  0  0  0  0  0  0  0  0  0  0  0
   -1.3856   -0.8000    0.0000 Cl  0  0  0  0  0  0  0  0  0  0  0  0
  1  2  1  0  0  0  0
  2  3  1  0  0  0  0
  3  4  2  0  0  0  0
  3  5  1  0  0  0  0
  1  6  1  0  0  0  0
  1  7  1  0  0  0  0
  1  8  1  0  0  0  0
M  END
> <ChemID>
101991

> <source_casrn>
503-38-8

> <CAS>
NOCAS_862065

> <SMILES>
O=C(Cl)OC(Cl)(Cl)Cl

> <NAME>
Diphosgene

> <preferred_name>


> <iupac>


> <MPID>
21031

> <dsstox_substance_id>
DTXSID60862065

> <Canonical_QSARr>
O=C(Cl)OC(Cl)(Cl)Cl

> <InChI_Code_QSARr>
InChI=1S/C2Cl4O2/c3-1(7)8-2(4,5)6

> <InChI Key_QSARr>
HCUYBXPSSCRKRF-UHFFFAOYSA-N

> <Salt_Solvent>
?

> <BP>
128.0

$$$$
101996
  -INDIGO-08031720192D

 23 23  0  0  0  0  0  0  0  0999 V2000
    1.5757    0.2778    0.0000 C   0  0  0  0  0  0  0  0  0  0  0  0
    3.1514    0.5556    0.0000 H   0  0  0  0  0  0  0  0  0  0  0  0
    2.1230    1.7814    0.0000 H   0  0  0  0  0  0  0  0  0  0  0  0
    2.6042   -0.9478    0.0000 H   0  0  0  0  0  0  0  0  0  0  0  0
    0.0001    0.0000    0.0000 C   0  0  0  0  0  0  0  0  0  0  0  0
    0.5472    1.5035    0.0000 H   0  0  0  0  0  0  0  0  0  0  0  0
    0.0001   -1.6000    0.0000 C   0  0  0  0  0  0  0  0  0  0  0  0
    1.5757   -1.3222    0.0000 H   0  0  0  0  0  0  0  0  0  0  0  0
    0.5472   -3.1035    0.0000 H   0  0  0  0  0  0  0  0  0  0  0  0
   -1.3856   -2.4000    0.0000 C   0  0  0  0  0  0  0  0  0  0  0  0
   -0.3572   -3.6257    0.0000 H   0  0  0  0  0  0  0  0  0  0  0  0
   -2.4140   -3.6257    0.0000 H   0  0  0  0  0  0  0  0  0  0  0  0
   -2.7713   -1.6000    0.0000 C   0  0  0  0  0  0  0  0  0  0  0  0
   -3.3185   -3.1035    0.0000 H   0  0  0  0  0  0  0  0  0  0  0  0
   -4.3470   -1.3222    0.0000 H   0  0  0  0  0  0  0  0  0  0  0  0
   -2.7713    0.0000    0.0000 C   0  0  0  0  0  0  0  0  0  0  0  0
   -4.3470   -0.2778    0.0000 H   0  0  0  0  0  0  0  0  0  0  0  0
   -3.3185    1.5035    0.0000 C   0  0  0  0  0  0  0  0  0  0  0  0
   -3.8658    3.0070    0.0000 H   0  0  0  0  0  0  0  0  0  0  0  0
   -4.8942    1.7814    0.0000 H   0  0  0  0  0  0  0  0  0  0  0  0
   -2.2901    2.7292    0.0000 H   0  0  0  0  0  0  0  0  0  0  0  0
   -1.3856    0.8000    0.0000 N   0  0  0  0  0  0  0  0  0  0  0  0
   -1.3856    2.4000    0.0000 H   0  0  0  0  0  0  0  0  0  0  0  0
  1  2  1  0  0  0  0
  1  3  1  0  0  0  0
  1  4  1  0  0  0  0
  1  5  1  0  0  0  0
  5  6  1  0  0  0  0
  5  7  1  0  0  0  0
  7  8  1  0  0  0  0
  7  9  1  0  0  0  0
  7 10  1  0  0  0  0
 10 11  1  0  0  0  0
 10 12  1  0  0  0  0
 10 13  1  0  0  0  0
 13 14  1  0  0  0  0
 13 15  1  0  0  0  0
 13 16  1  0  0  0  0
 16 17  1  0  0  0  0
 16 18  1  0  0  0  0
 18 19  1  0  0  0  0
 18 20  1  0  0  0  0
 18 21  1  0  0  0  0
 16 22  1  0  0  0  0
 22  5  1  0  0  0  0
 22 23  1  0  0  0  0
M  END
> <ChemID>
101996

> <source_casrn>
504-03-0

> <CAS>
504-03-0

> <SMILES>
C[C@@H]1CCC[C@H](C)N1

> <NAME>
Piperidine, 2,6-dimethyl-

> <preferred_name>
cis-Nanophine

> <iupac>
(2R,6S)-2,6-dimethylpiperidine

> <MPID>
21035

> <dsstox_substance_id>
DTXSID8048527

> <Canonical_QSARr>
CC1CCCC(C)N1

> <InChI_Code_QSARr>
InChI=1S/C7H15N/c1-6-4-3-5-7(2)8-6/h6-8H,3-5H2,1-2H3

> <InChI Key_QSARr>
SDGKUVSVPIIUCF-UHFFFAOYSA-N

> <Salt_Solvent>
?

> <BP>
127.0

$$$$
102000
  -INDIGO-08031720192D

 13 13  0  0  0  0  0  0  0  0999 V2000
    1.6000   -0.0000    0.0000 N   0  0  0  0  0  0  0  0  0  0  0  0
    2.4000   -1.3856    0.0000 H   0  0  0  0  0  0  0  0  0  0  0  0
    2.4000    1.3856    0.0000 H   0  0  0  0  0  0  0  0  0  0  0  0
    0.0000   -0.0000    0.0000 C   0  0  0  0  0  0  0  0  0  0  0  0
   -0.8000    1.3856    0.0000 C   0  0  0  0  0  0  0  0  0  0  0  0
    0.0000    2.7713    0.0000 H   0  0  0  0  0  0  0  0  0  0  0  0
   -2.4000    1.3856    0.0000 C   0  0  0  0  0  0  0  0  0  0  0  0
   -3.2000    2.7713    0.0000 H   0  0  0  0  0  0  0  0  0  0  0  0
   -3.2000   -0.0000    0.0000 C   0  0  0  0  0  0  0  0  0  0  0  0
   -4.8000   -0.0000    0.0000 H   0  0  0  0  0  0  0  0  0  0  0  0
   -2.4000   -1.3856    0.0000 C   0  0  0  0  0  0  0  0  0  0  0  0
   -3.2000   -2.7713    0.0000 H   0  0  0  0  0  0  0  0  0  0  0  0
   -0.8000   -1.3856    0.0000 N   0  0  0  0  0  0  0  0  0  0  0  0
  1  2  1  0  0  0  0
  1  3  1  0  0  0  0
  1  4  1  0  0  0  0
  4  5  1  0  0  0  0
  5  6  1  0  0  0  0
  5  7  2  0  0  0  0
  7  8  1  0  0  0  0
  7  9  1  0  0  0  0
  9 10  1  0  0  0  0
  9 11  2  0  0  0  0
 11 12  1  0  0  0  0
 11 13  1  0  0  0  0
 13  4  2  0  0  0  0
M  END
> <ChemID>
102000

> <source_casrn>
504-29-0

> <CAS>
504-29-0

> <SMILES>
Nc1cccc[n]1

> <NAME>
2-AMINOPYRIDINE

> <preferred_name>
2-Aminopyridine

> <iupac>
pyridin-2-amine

> <MPID>
21039

> <dsstox_substance_id>
DTXSID0024505

> <Canonical_QSARr>
Nc1cccc[n]1

> <InChI_Code_QSARr>
InChI=1S/C5H6N2/c6-5-3-1-2-4-7-5/h1-4H,(H2,6,7)

> <InChI Key_QSARr>
ICSNLGPSRYBMBD-UHFFFAOYSA-N

> <Salt_Solvent>
?

> <BP>
210.6

$$$$
102004
  -INDIGO-08031720192D

 13 12  0  0  0  0  0  0  0  0999 V2000
   -1.3856    0.8000    0.0000 C   0  0  0  0  0  0  0  0  0  0  0  0
   -0.7734    2.2782    0.0000 H   0  0  0  0  0  0  0  0  0  0  0  0
   -1.9979    2.2782    0.0000 H   0  0  0  0  0  0  0  0  0  0  0  0
    0.0001    0.0000    0.0000 C   0  0  0  0  0  0  0  0  0  0  0  0
   -0.6123   -1.4782    0.0000 H   0  0  0  0  0  0  0  0  0  0  0  0
    0.6123   -1.4782    0.0000 H   0  0  0  0  0  0  0  0  0  0  0  0
    1.3856    0.8000    0.0000 C   0  0  0  0  0  0  0  0  0  0  0  0
    1.9979    2.2782    0.0000 H   0  0  0  0  0  0  0  0  0  0  0  0
    0.7734    2.2782    0.0000 H   0  0  0  0  0  0  0  0  0  0  0  0
    2.7713    0.0000    0.0000 O   0  0  0  0  0  0  0  0  0  0  0  0
    4.1569    0.8000    0.0000 H   0  0  0  0  0  0  0  0  0  0  0  0
   -2.7713    0.0000    0.0000 O   0  0  0  0  0  0  0  0  0  0  0  0
   -4.1569    0.8000    0.0000 H   0  0  0  0  0  0  0  0  0  0  0  0
  1  2  1  0  0  0  0
  1  3  1  0  0  0  0
  1  4  1  0  0  0  0
  4  5  1  0  0  0  0
  4  6  1  0  0  0  0
  4  7  1  0  0  0  0
  7  8  1  0  0  0  0
  7  9  1  0  0  0  0
  7 10  1  0  0  0  0
 10 11  1  0  0  0  0
  1 12  1  0  0  0  0
 12 13  1  0  0  0  0
M  END
> <ChemID>
102004

> <source_casrn>
504-63-2

> <CAS>
504-63-2

> <SMILES>
OCCCO

> <NAME>
1,3-PROPANEDIOL

> <preferred_name>
1,3-Propanediol

> <iupac>
propane-1,3-diol

> <MPID>
21043

> <dsstox_substance_id>
DTXSID8041246

> <Canonical_QSARr>
OCCCO

> <InChI_Code_QSARr>
InChI=1S/C3H8O2/c4-2-1-3-5/h4-5H,1-3H2

> <InChI Key_QSARr>
YPFDHNVEDLHUCE-UHFFFAOYSA-N

> <Salt_Solvent>
?

> <BP>
214.4

$$$$
102008
  -INDIGO-08031720192D

 26 25  0  0  0  0  0  0  0  0999 V2000
    5.5425    0.0000    0.0000 O   0  0  0  0  0  0  0  0  0  0  0  0
    6.9282   -0.8000    0.0000 H   0  0  0  0  0  0  0  0  0  0  0  0
    4.1570   -0.8000    0.0000 C   0  0  0  0  0  0  0  0  0  0  0  0
    2.7713    0.0000    0.0000 C   0  0  0  0  0  0  0  0  0  0  0  0
    3.3835    1.4782    0.0000 H   0  0  0  0  0  0  0  0  0  0  0  0
    2.1589    1.4782    0.0000 H   0  0  0  0  0  0  0  0  0  0  0  0
    1.3856   -0.8000    0.0000 C   0  0  0  0  0  0  0  0  0  0  0  0
    0.7732   -2.2782    0.0000 H   0  0  0  0  0  0  0  0  0  0  0  0
    1.9980   -2.2782    0.0000 H   0  0  0  0  0  0  0  0  0  0  0  0
   -0.0001    0.0000    0.0000 C   0  0  0  0  0  0  0  0  0  0  0  0
    0.6123    1.4782    0.0000 H   0  0  0  0  0  0  0  0  0  0  0  0
   -0.6122    1.4782    0.0000 H   0  0  0  0  0  0  0  0  0  0  0  0
   -1.3856   -0.8000    0.0000 C   0  0  0  0  0  0  0  0  0  0  0  0
   -1.9979   -2.2782    0.0000 H   0  0  0  0  0  0  0  0  0  0  0  0
   -0.7734   -2.2782    0.0000 H   0  0  0  0  0  0  0  0  0  0  0  0
   -2.7713    0.0000    0.0000 C   0  0  0  0  0  0  0  0  0  0  0  0
   -2.1589    1.4782    0.0000 H   0  0  0  0  0  0  0  0  0  0  0  0
   -3.3836    1.4782    0.0000 H   0  0  0  0  0  0  0  0  0  0  0  0
   -4.1570   -0.8000    0.0000 C   0  0  0  0  0  0  0  0  0  0  0  0
   -4.7691   -2.2782    0.0000 H   0  0  0  0  0  0  0  0  0  0  0  0
   -3.5446   -2.2782    0.0000 H   0  0  0  0  0  0  0  0  0  0  0  0
   -5.5427    0.0000    0.0000 C   0  0  0  0  0  0  0  0  0  0  0  0
   -6.9281   -0.8000    0.0000 O   0  0  0  0  0  0  0  0  0  0  0  0
   -8.3138    0.0000    0.0000 H   0  0  0  0  0  0  0  0  0  0  0  0
   -5.5427    1.6000    0.0000 O   0  0  0  0  0  0  0  0  0  0  0  0
    4.1570   -2.4000    0.0000 O   0  0  0  0  0  0  0  0  0  0  0  0
  1  2  1  0  0  0  0
  1  3  1  0  0  0  0
  3  4  1  0  0  0  0
  4  5  1  0  0  0  0
  4  6  1  0  0  0  0
  4  7  1  0  0  0  0
  7  8  1  0  0  0  0
  7  9  1  0  0  0  0
  7 10  1  0  0  0  0
 10 11  1  0  0  0  0
 10 12  1  0  0  0  0
 10 13  1  0  0  0  0
 13 14  1  0  0  0  0
 13 15  1  0  0  0  0
 13 16  1  0  0  0  0
 16 17  1  0  0  0  0
 16 18  1  0  0  0  0
 16 19  1  0  0  0  0
 19 20  1  0  0  0  0
 19 21  1  0  0  0  0
 19 22  1  0  0  0  0
 22 23  1  0  0  0  0
 23 24  1  0  0  0  0
 22 25  2  0  0  0  0
  3 26  2  0  0  0  0
M  END
> <ChemID>
102008

> <source_casrn>
505-48-6

> <CAS>
505-48-6

> <SMILES>
OC(=O)CCCCCCC(O)=O

> <NAME>
SUBERIC ACID

> <preferred_name>
Octanedioic acid

> <iupac>
octanedioic acid

> <MPID>
21047

> <dsstox_substance_id>
DTXSID8021644

> <Canonical_QSARr>
OC(=O)CCCCCCC(O)=O

> <InChI_Code_QSARr>
InChI=1S/C8H14O4/c9-7(10)5-3-1-2-4-6-8(11)12/h1-6H2,(H,9,10)(H,11,12)

> <InChI Key_QSARr>
TYFQFVWCELRYAO-UHFFFAOYSA-N

> <Salt_Solvent>
?

> <BP>
345.5

$$$$
102012
  -INDIGO-08031720192D

 53 52  0  0  0  0  0  0  0  0999 V2000
   11.0853    1.6000    0.0000 O   0  0  0  0  0  0  0  0  0  0  0  0
   11.0853    0.0000    0.0000 C   0  0  0  0  0  0  0  0  0  0  0  0
   12.4709   -0.8000    0.0000 O   0  0  0  0  0  0  0  0  0  0  0  0
   13.8564    0.0000    0.0000 H   0  0  0  0  0  0  0  0  0  0  0  0
    9.6993   -0.8000    0.0000 C   0  0  0  0  0  0  0  0  0  0  0  0
    9.0871   -2.2782    0.0000 H   0  0  0  0  0  0  0  0  0  0  0  0
   10.3120   -2.2782    0.0000 H   0  0  0  0  0  0  0  0  0  0  0  0
    8.3138    0.0000    0.0000 C   0  0  0  0  0  0  0  0  0  0  0  0
    8.9260    1.4782    0.0000 H   0  0  0  0  0  0  0  0  0  0  0  0
    7.7015    1.4782    0.0000 H   0  0  0  0  0  0  0  0  0  0  0  0
    6.9282   -0.8000    0.0000 C   0  0  0  0  0  0  0  0  0  0  0  0
    6.3160   -2.2782    0.0000 H   0  0  0  0  0  0  0  0  0  0  0  0
    7.5405   -2.2782    0.0000 H   0  0  0  0  0  0  0  0  0  0  0  0
    5.5427    0.0000    0.0000 C   0  0  0  0  0  0  0  0  0  0  0  0
    6.1549    1.4782    0.0000 H   0  0  0  0  0  0  0  0  0  0  0  0
    4.9304    1.4782    0.0000 H   0  0  0  0  0  0  0  0  0  0  0  0
    4.1571   -0.8000    0.0000 C   0  0  0  0  0  0  0  0  0  0  0  0
    3.5445   -2.2782    0.0000 H   0  0  0  0  0  0  0  0  0  0  0  0
    4.7693   -2.2782    0.0000 H   0  0  0  0  0  0  0  0  0  0  0  0
    2.7712    0.0000    0.0000 C   0  0  0  0  0  0  0  0  0  0  0  0
    3.3834    1.4782    0.0000 H   0  0  0  0  0  0  0  0  0  0  0  0
    2.1589    1.4782    0.0000 H   0  0  0  0  0  0  0  0  0  0  0  0
    1.3856   -0.8000    0.0000 C   0  0  0  0  0  0  0  0  0  0  0  0
    0.7734   -2.2782    0.0000 H   0  0  0  0  0  0  0  0  0  0  0  0
    1.9978   -2.2782    0.0000 H   0  0  0  0  0  0  0  0  0  0  0  0
    0.0000    0.0000    0.0000 C   0  0  0  0  0  0  0  0  0  0  0  0
    0.6123    1.4782    0.0000 H   0  0  0  0  0  0  0  0  0  0  0  0
   -0.6122    1.4782    0.0000 H   0  0  0  0  0  0  0  0  0  0  0  0
   -1.3855   -0.8000    0.0000 C   0  0  0  0  0  0  0  0  0  0  0  0
   -1.9977   -2.2782    0.0000 H   0  0  0  0  0  0  0  0  0  0  0  0
   -0.7733   -2.2782    0.0000 H   0  0  0  0  0  0  0  0  0  0  0  0
   -2.7715    0.0000    0.0000 C   0  0  0  0  0  0  0  0  0  0  0  0
   -2.1588    1.4782    0.0000 H   0  0  0  0  0  0  0  0  0  0  0  0
   -3.3837    1.4782    0.0000 H   0  0  0  0  0  0  0  0  0  0  0  0
   -4.1570   -0.8000    0.0000 C   0  0  0  0  0  0  0  0  0  0  0  0
   -4.7693   -2.2782    0.0000 H   0  0  0  0  0  0  0  0  0  0  0  0
   -3.5448   -2.2782    0.0000 H   0  0  0  0  0  0  0  0  0  0  0  0
   -5.5426    0.0000    0.0000 C   0  0  0  0  0  0  0  0  0  0  0  0
   -4.9304    1.4782    0.0000 H   0  0  0  0  0  0  0  0  0  0  0  0
   -6.1548    1.4782    0.0000 H   0  0  0  0  0  0  0  0  0  0  0  0
   -6.9281   -0.8000    0.0000 C   0  0  0  0  0  0  0  0  0  0  0  0
   -7.5404   -2.2782    0.0000 H   0  0  0  0  0  0  0  0  0  0  0  0
   -6.3159   -2.2782    0.0000 H   0  0  0  0  0  0  0  0  0  0  0  0
   -8.3137    0.0000    0.0000 C   0  0  0  0  0  0  0  0  0  0  0  0
   -7.7015    1.4782    0.0000 H   0  0  0  0  0  0  0  0  0  0  0  0
   -8.9263    1.4782    0.0000 H   0  0  0  0  0  0  0  0  0  0  0  0
   -9.6997   -0.8000    0.0000 C   0  0  0  0  0  0  0  0  0  0  0  0
  -10.3119   -2.2782    0.0000 H   0  0  0  0  0  0  0  0  0  0  0  0
   -9.0870   -2.2782    0.0000 H   0  0  0  0  0  0  0  0  0  0  0  0
  -11.0852    0.0000    0.0000 C   0  0  0  0  0  0  0  0  0  0  0  0
  -12.4708    0.8000    0.0000 H   0  0  0  0  0  0  0  0  0  0  0  0
  -12.4708   -0.8000    0.0000 H   0  0  0  0  0  0  0  0  0  0  0  0
  -11.0852    1.6000    0.0000 H   0  0  0  0  0  0  0  0  0  0  0  0
  1  2  2  0  0  0  0
  2  3  1  0  0  0  0
  3  4  1  0  0  0  0
  2  5  1  0  0  0  0
  5  6  1  0  0  0  0
  5  7  1  0  0  0  0
  5  8  1  0  0  0  0
  8  9  1  0  0  0  0
  8 10  1  0  0  0  0
  8 11  1  0  0  0  0
 11 12  1  0  0  0  0
 11 13  1  0  0  0  0
 11 14  1  0  0  0  0
 14 15  1  0  0  0  0
 14 16  1  0  0  0  0
 14 17  1  0  0  0  0
 17 18  1  0  0  0  0
 17 19  1  0  0  0  0
 17 20  1  0  0  0  0
 20 21  1  0  0  0  0
 20 22  1  0  0  0  0
 20 23  1  0  0  0  0
 23 24  1  0  0  0  0
 23 25  1  0  0  0  0
 23 26  1  0  0  0  0
 26 27  1  0  0  0  0
 26 28  1  0  0  0  0
 26 29  1  0  0  0  0
 29 30  1  0  0  0  0
 29 31  1  0  0  0  0
 29 32  1  0  0  0  0
 32 33  1  0  0  0  0
 32 34  1  0  0  0  0
 32 35  1  0  0  0  0
 35 36  1  0  0  0  0
 35 37  1  0  0  0  0
 35 38  1  0  0  0  0
 38 39  1  0  0  0  0
 38 40  1  0  0  0  0
 38 41  1  0  0  0  0
 41 42  1  0  0  0  0
 41 43  1  0  0  0  0
 41 44  1  0  0  0  0
 44 45  1  0  0  0  0
 44 46  1  0  0  0  0
 44 47  1  0  0  0  0
 47 48  1  0  0  0  0
 47 49  1  0  0  0  0
 47 50  1  0  0  0  0
 50 51  1  0  0  0  0
 50 52  1  0  0  0  0
 50 53  1  0  0  0  0
M  END
> <ChemID>
102012

> <source_casrn>
506-12-7

> <CAS>
506-12-7

> <SMILES>
CCCCCCCCCCCCCCCCC(O)=O

> <NAME>
HEPTADECANOIC ACID

> <preferred_name>
Heptadecanoic acid

> <iupac>
heptadecanoic acid

> <MPID>
21051

> <dsstox_substance_id>
DTXSID5021596

> <Canonical_QSARr>
CCCCCCCCCCCCCCCCC(O)=O

> <InChI_Code_QSARr>
InChI=1S/C17H34O2/c1-2-3-4-5-6-7-8-9-10-11-12-13-14-15-16-17(18)19/h2-16H2,1H3,(H,18,19)

> <InChI Key_QSARr>
KEMQGTRYUADPNZ-UHFFFAOYSA-N

> <Salt_Solvent>
?

> <BP>
363.8

$$$$
102019
  -INDIGO-08031720192D

  7  6  0  0  0  0  0  0  0  0999 V2000
   -1.6000    0.0000    0.0000 C   0  0  0  0  0  0  0  0  0  0  0  0
    0.0000    0.0000    0.0000 C   0  0  0  0  0  0  0  0  0  0  0  0
    1.6000    0.0000    0.0000 H   0  0  0  0  0  0  0  0  0  0  0  0
    0.8000    1.3856    0.0000 H   0  0  0  0  0  0  0  0  0  0  0  0
    0.8000   -1.3856    0.0000 H   0  0  0  0  0  0  0  0  0  0  0  0
   -2.4000    1.3856    0.0000 O   0  0  0  0  0  0  0  0  0  0  0  0
   -2.4000   -1.3856    0.0000 I   0  0  0  0  0  0  0  0  0  0  0  0
  1  2  1  0  0  0  0
  2  3  1  0  0  0  0
  2  4  1  0  0  0  0
  2  5  1  0  0  0  0
  1  6  2  0  0  0  0
  1  7  1  0  0  0  0
M  END
> <ChemID>
102019

> <source_casrn>
507-02-8

> <CAS>
507-02-8

> <SMILES>
CC(=O)I

> <NAME>
ACETYL IODIDE

> <preferred_name>
Acetyl iodide

> <iupac>
ACETYL IODIDE

> <MPID>
21055

> <dsstox_substance_id>
DTXSID0060141

> <Canonical_QSARr>
CC(=O)I

> <InChI_Code_QSARr>
InChI=1S/C2H3IO/c1-2(3)4/h1H3

> <InChI Key_QSARr>
LEKJTGQWLAUGQA-UHFFFAOYSA-N

> <Salt_Solvent>
?

> <BP>
108.0

$$$$
102023
  -INDIGO-08031720192D

 17 16  0  0  0  0  0  0  0  0999 V2000
    0.8000   -1.3856    0.0000 Br  0  0  0  0  0  0  0  0  0  0  0  0
   -0.0000    0.0000    0.0000 C   0  0  0  0  0  0  0  0  0  0  0  0
    1.5036    0.5472    0.0000 C   0  0  0  0  0  0  0  0  0  0  0  0
    1.1572    2.1093    0.0000 H   0  0  0  0  0  0  0  0  0  0  0  0
    2.3631    1.8967    0.0000 H   0  0  0  0  0  0  0  0  0  0  0  0
    2.7292   -0.4813    0.0000 C   0  0  0  0  0  0  0  0  0  0  0  0
    3.9548   -1.5097    0.0000 H   0  0  0  0  0  0  0  0  0  0  0  0
    4.2327    0.0660    0.0000 H   0  0  0  0  0  0  0  0  0  0  0  0
    2.4513   -2.0569    0.0000 H   0  0  0  0  0  0  0  0  0  0  0  0
   -1.3857   -0.8000    0.0000 C   0  0  0  0  0  0  0  0  0  0  0  0
   -2.7713   -1.6000    0.0000 H   0  0  0  0  0  0  0  0  0  0  0  0
   -1.3857   -2.4000    0.0000 H   0  0  0  0  0  0  0  0  0  0  0  0
   -2.7713    0.0000    0.0000 H   0  0  0  0  0  0  0  0  0  0  0  0
   -0.8000    1.3856    0.0000 C   0  0  0  0  0  0  0  0  0  0  0  0
   -1.6001    2.7713    0.0000 H   0  0  0  0  0  0  0  0  0  0  0  0
   -0.0000    2.7713    0.0000 H   0  0  0  0  0  0  0  0  0  0  0  0
   -2.4000    1.3856    0.0000 H   0  0  0  0  0  0  0  0  0  0  0  0
  1  2  1  0  0  0  0
  2  3  1  0  0  0  0
  3  4  1  0  0  0  0
  3  5  1  0  0  0  0
  3  6  1  0  0  0  0
  6  7  1  0  0  0  0
  6  8  1  0  0  0  0
  6  9  1  0  0  0  0
  2 10  1  0  0  0  0
 10 11  1  0  0  0  0
 10 12  1  0  0  0  0
 10 13  1  0  0  0  0
  2 14  1  0  0  0  0
 14 15  1  0  0  0  0
 14 16  1  0  0  0  0
 14 17  1  0  0  0  0
M  END
> <ChemID>
102023

> <source_casrn>
507-36-8

> <CAS>
507-36-8

> <SMILES>
CCC(C)(C)Br

> <NAME>
Butane, 2-bromo-2-methyl-

> <preferred_name>
Butane, 2-bromo-2-methyl-

> <iupac>
2-Bromo-2-methylbutane

> <MPID>
21059

> <dsstox_substance_id>
DTXSID5060146

> <Canonical_QSARr>
CCC(C)(C)Br

> <InChI_Code_QSARr>
InChI=1S/C5H11Br/c1-4-5(2,3)6/h4H2,1-3H3

> <InChI Key_QSARr>
JOUWCKCVTDSMHF-UHFFFAOYSA-N

> <Salt_Solvent>
?

> <BP>
108.0

$$$$
102028
  -INDIGO-08031720192D

 26 25  0  0  0  0  0  0  0  0999 V2000
    4.1569   -0.8000    0.0000 C   0  0  0  0  0  0  0  0  0  0  0  0
    5.5426   -1.6000    0.0000 F   0  0  0  0  0  0  0  0  0  0  0  0
    5.5426    0.0000    0.0000 F   0  0  0  0  0  0  0  0  0  0  0  0
    2.7713    0.0000    0.0000 C   0  0  0  0  0  0  0  0  0  0  0  0
    3.3835    1.4782    0.0000 F   0  0  0  0  0  0  0  0  0  0  0  0
    2.1590    1.4782    0.0000 F   0  0  0  0  0  0  0  0  0  0  0  0
    1.3856   -0.8000    0.0000 C   0  0  0  0  0  0  0  0  0  0  0  0
    0.7733   -2.2782    0.0000 F   0  0  0  0  0  0  0  0  0  0  0  0
    1.9980   -2.2782    0.0000 F   0  0  0  0  0  0  0  0  0  0  0  0
   -0.0001    0.0000    0.0000 C   0  0  0  0  0  0  0  0  0  0  0  0
    0.6123    1.4782    0.0000 F   0  0  0  0  0  0  0  0  0  0  0  0
   -0.6122    1.4782    0.0000 F   0  0  0  0  0  0  0  0  0  0  0  0
   -1.3856   -0.8000    0.0000 C   0  0  0  0  0  0  0  0  0  0  0  0
   -1.9979   -2.2782    0.0000 F   0  0  0  0  0  0  0  0  0  0  0  0
   -0.7734   -2.2782    0.0000 F   0  0  0  0  0  0  0  0  0  0  0  0
   -2.7713    0.0000    0.0000 C   0  0  0  0  0  0  0  0  0  0  0  0
   -2.1589    1.4782    0.0000 F   0  0  0  0  0  0  0  0  0  0  0  0
   -3.3836    1.4782    0.0000 F   0  0  0  0  0  0  0  0  0  0  0  0
   -4.1570   -0.8000    0.0000 C   0  0  0  0  0  0  0  0  0  0  0  0
   -4.7692   -2.2782    0.0000 F   0  0  0  0  0  0  0  0  0  0  0  0
   -3.5446   -2.2782    0.0000 F   0  0  0  0  0  0  0  0  0  0  0  0
   -5.5425    0.0000    0.0000 C   0  0  0  0  0  0  0  0  0  0  0  0
   -6.9282    0.8000    0.0000 F   0  0  0  0  0  0  0  0  0  0  0  0
   -6.9282   -0.8000    0.0000 F   0  0  0  0  0  0  0  0  0  0  0  0
   -5.5425    1.6000    0.0000 I   0  0  0  0  0  0  0  0  0  0  0  0
    4.1569   -2.4000    0.0000 F   0  0  0  0  0  0  0  0  0  0  0  0
  1  2  1  0  0  0  0
  1  3  1  0  0  0  0
  1  4  1  0  0  0  0
  4  5  1  0  0  0  0
  4  6  1  0  0  0  0
  4  7  1  0  0  0  0
  7  8  1  0  0  0  0
  7  9  1  0  0  0  0
  7 10  1  0  0  0  0
 10 11  1  0  0  0  0
 10 12  1  0  0  0  0
 10 13  1  0  0  0  0
 13 14  1  0  0  0  0
 13 15  1  0  0  0  0
 13 16  1  0  0  0  0
 16 17  1  0  0  0  0
 16 18  1  0  0  0  0
 16 19  1  0  0  0  0
 19 20  1  0  0  0  0
 19 21  1  0  0  0  0
 19 22  1  0  0  0  0
 22 23  1  0  0  0  0
 22 24  1  0  0  0  0
 22 25  1  0  0  0  0
  1 26  1  0  0  0  0
M  END
> <ChemID>
102028

> <source_casrn>
507-63-1

> <CAS>
507-63-1

> <SMILES>
FC(F)(F)C(F)(F)C(F)(F)C(F)(F)C(F)(F)C(F)(F)C(F)(F)C(F)(F)I

> <NAME>
Octane, heptadecafluoro-8-iodo-

> <preferred_name>
Octane, 1,1,1,2,2,3,3,4,4,5,5,6,6,7,7,8,8-heptadecafluoro-8-iodo-

> <iupac>
1,1,1,2,2,3,3,4,4,5,5,6,6,7,7,8,8-heptadecafluoro-8-iodooctane

> <MPID>
21063

> <dsstox_substance_id>
DTXSID0060147

> <Canonical_QSARr>
FC(F)(F)C(F)(F)C(F)(F)C(F)(F)C(F)(F)C(F)(F)C(F)(F)C(F)(F)I

> <InChI_Code_QSARr>
InChI=1S/C8F17I/c9-1(10,3(13,14)5(17,18)7(21,22)23)2(11,12)4(15,16)6(19,20)8(24,25)26

> <InChI Key_QSARr>
KWXGJTSJUKTDQU-UHFFFAOYSA-N

> <Salt_Solvent>
?

> <BP>
160.5

$$$$
102032
  -INDIGO-08031720192D

 17 16  0  0  0  0  0  0  0  0999 V2000
    0.8000   -1.3856    0.0000 O   0  0  0  0  0  0  0  0  0  0  0  0
    0.0001    0.0000    0.0000 P   0  0  0  0  0  0  0  0  0  0  0  0
    1.6001    0.0000    0.0000 O   0  0  0  0  0  0  0  0  0  0  0  0
    2.4000   -1.3856    0.0000 C   0  0  0  0  0  0  0  0  0  0  0  0
    4.0000   -1.3856    0.0000 H   0  0  0  0  0  0  0  0  0  0  0  0
    3.2001   -2.7713    0.0000 H   0  0  0  0  0  0  0  0  0  0  0  0
    1.6001   -2.7713    0.0000 H   0  0  0  0  0  0  0  0  0  0  0  0
    0.8000    1.3856    0.0000 O   0  0  0  0  0  0  0  0  0  0  0  0
    0.0001    2.7713    0.0000 C   0  0  0  0  0  0  0  0  0  0  0  0
   -0.8000    4.1569    0.0000 H   0  0  0  0  0  0  0  0  0  0  0  0
    0.8000    4.1569    0.0000 H   0  0  0  0  0  0  0  0  0  0  0  0
   -1.5999    2.7713    0.0000 H   0  0  0  0  0  0  0  0  0  0  0  0
   -1.5999    0.0000    0.0000 O   0  0  0  0  0  0  0  0  0  0  0  0
   -2.4000   -1.3856    0.0000 C   0  0  0  0  0  0  0  0  0  0  0  0
   -3.2001   -2.7713    0.0000 H   0  0  0  0  0  0  0  0  0  0  0  0
   -4.0000   -1.3856    0.0000 H   0  0  0  0  0  0  0  0  0  0  0  0
   -1.5999   -2.7713    0.0000 H   0  0  0  0  0  0  0  0  0  0  0  0
  1  2  2  0  0  0  0
  2  3  1  0  0  0  0
  3  4  1  0  0  0  0
  4  5  1  0  0  0  0
  4  6  1  0  0  0  0
  4  7  1  0  0  0  0
  2  8  1  0  0  0  0
  8  9  1  0  0  0  0
  9 10  1  0  0  0  0
  9 11  1  0  0  0  0
  9 12  1  0  0  0  0
  2 13  1  0  0  0  0
 13 14  1  0  0  0  0
 14 15  1  0  0  0  0
 14 16  1  0  0  0  0
 14 17  1  0  0  0  0
M  END
> <ChemID>
102032

> <source_casrn>
512-56-1

> <CAS>
512-56-1

> <SMILES>
COP(=O)(OC)OC

> <NAME>
TRIMETHYL PHOSPHATE

> <preferred_name>
Trimethyl phosphate

> <iupac>
trimethyl phosphate

> <MPID>
21067

> <dsstox_substance_id>
DTXSID1021403

> <Canonical_QSARr>
COP(=O)(OC)OC

> <InChI_Code_QSARr>
InChI=1S/C3H9O4P/c1-5-8(4,6-2)7-3/h1-3H3

> <InChI Key_QSARr>
WVLBCYQITXONBZ-UHFFFAOYSA-N

> <Salt_Solvent>
?

> <BP>
197.2

$$$$
102038
  -INDIGO-08031720192D

 15 14  0  0  0  0  0  0  0  0999 V2000
    0.8000   -1.3856    0.0000 C   0  0  0  0  0  0  0  0  0  0  0  0
    1.6000   -2.7713    0.0000 H   0  0  0  0  0  0  0  0  0  0  0  0
   -0.0000   -2.7713    0.0000 H   0  0  0  0  0  0  0  0  0  0  0  0
    2.4000   -1.3856    0.0000 H   0  0  0  0  0  0  0  0  0  0  0  0
   -0.0000    0.0000    0.0000 C   0  0  0  0  0  0  0  0  0  0  0  0
   -1.6000    0.0000    0.0000 C   0  0  0  0  0  0  0  0  0  0  0  0
   -2.4000   -1.3856    0.0000 H   0  0  0  0  0  0  0  0  0  0  0  0
   -2.4000    1.3856    0.0000 C   0  0  0  0  0  0  0  0  0  0  0  0
   -3.2000    2.7713    0.0000 H   0  0  0  0  0  0  0  0  0  0  0  0
   -4.0000    1.3856    0.0000 H   0  0  0  0  0  0  0  0  0  0  0  0
   -1.6000    2.7713    0.0000 H   0  0  0  0  0  0  0  0  0  0  0  0
    0.8000    1.3856    0.0000 C   0  0  0  0  0  0  0  0  0  0  0  0
    1.6000    2.7713    0.0000 H   0  0  0  0  0  0  0  0  0  0  0  0
    2.4000    1.3856    0.0000 H   0  0  0  0  0  0  0  0  0  0  0  0
   -0.0000    2.7713    0.0000 H   0  0  0  0  0  0  0  0  0  0  0  0
  1  2  1  0  0  0  0
  1  3  1  0  0  0  0
  1  4  1  0  0  0  0
  1  5  1  0  0  0  0
  5  6  2  0  0  0  0
  6  7  1  0  0  0  0
  6  8  1  0  0  0  0
  8  9  1  0  0  0  0
  8 10  1  0  0  0  0
  8 11  1  0  0  0  0
  5 12  1  0  0  0  0
 12 13  1  0  0  0  0
 12 14  1  0  0  0  0
 12 15  1  0  0  0  0
M  END
> <ChemID>
102038

> <source_casrn>
513-35-9

> <CAS>
513-35-9

> <SMILES>
CC=C(C)C

> <NAME>
2-METHYL-2-BUTENE

> <preferred_name>
2-Methyl-2-butene

> <iupac>
2-methylbut-2-ene

> <MPID>
21071

> <dsstox_substance_id>
DTXSID8027165

> <Canonical_QSARr>
CC=C(C)C

> <InChI_Code_QSARr>
InChI=1S/C5H10/c1-4-5(2)3/h4H,1-3H3

> <InChI Key_QSARr>
BKOOMYPCSUNDGP-UHFFFAOYSA-N

> <Salt_Solvent>
?

> <BP>
38.5

$$$$
102043
  -INDIGO-08031720192D

 14 13  0  0  0  0  0  0  0  0999 V2000
    0.0000    0.0000    0.0000 C   0  0  0  0  0  0  0  0  0  0  0  0
    0.6123    1.4782    0.0000 H   0  0  0  0  0  0  0  0  0  0  0  0
   -1.3856   -0.8000    0.0000 C   0  0  0  0  0  0  0  0  0  0  0  0
   -1.9980   -2.2782    0.0000 H   0  0  0  0  0  0  0  0  0  0  0  0
   -0.7733   -2.2782    0.0000 H   0  0  0  0  0  0  0  0  0  0  0  0
   -2.7713    0.0000    0.0000 C   0  0  0  0  0  0  0  0  0  0  0  0
   -4.1569    0.8000    0.0000 H   0  0  0  0  0  0  0  0  0  0  0  0
   -4.1569   -0.8000    0.0000 H   0  0  0  0  0  0  0  0  0  0  0  0
   -2.7713    1.6000    0.0000 H   0  0  0  0  0  0  0  0  0  0  0  0
    1.3856   -0.8000    0.0000 C   0  0  0  0  0  0  0  0  0  0  0  0
    2.7713   -1.6000    0.0000 H   0  0  0  0  0  0  0  0  0  0  0  0
    2.7713    0.0000    0.0000 H   0  0  0  0  0  0  0  0  0  0  0  0
    1.3856   -2.4000    0.0000 H   0  0  0  0  0  0  0  0  0  0  0  0
   -0.6123    1.4782    0.0000 I   0  0  0  0  0  0  0  0  0  0  0  0
  1  2  1  0  0  0  0
  1  3  1  0  0  0  0
  3  4  1  0  0  0  0
  3  5  1  0  0  0  0
  3  6  1  0  0  0  0
  6  7  1  0  0  0  0
  6  8  1  0  0  0  0
  6  9  1  0  0  0  0
  1 10  1  0  0  0  0
 10 11  1  0  0  0  0
 10 12  1  0  0  0  0
 10 13  1  0  0  0  0
  1 14  1  0  0  0  0
M  END
> <ChemID>
102043

> <source_casrn>
513-48-4

> <CAS>
513-48-4

> <SMILES>
CCC(C)I

> <NAME>
2-IODOBUTANE

> <preferred_name>
2-Iodobutane

> <iupac>
C4H9I

> <MPID>
21075

> <dsstox_substance_id>
DTXSID40858729

> <Canonical_QSARr>
CCC(C)I

> <InChI_Code_QSARr>
InChI=1S/C4H9I/c1-3-4(2)5/h4H,3H2,1-2H3

> <InChI Key_QSARr>
IQRUSQUYPCHEKN-UHFFFAOYSA-N

> <Salt_Solvent>
?

> <BP>
120.0

$$$$
102047
  -INDIGO-08031720192D

 16 15  0  0  0  0  0  0  0  0999 V2000
    1.6000   -0.0000    0.0000 C   0  0  0  0  0  0  0  0  0  0  0  0
    3.2000   -0.0000    0.0000 H   0  0  0  0  0  0  0  0  0  0  0  0
    2.4001   -1.3857    0.0000 H   0  0  0  0  0  0  0  0  0  0  0  0
    2.4001    1.3857    0.0000 H   0  0  0  0  0  0  0  0  0  0  0  0
    0.0000    0.0000    0.0000 C   0  0  0  0  0  0  0  0  0  0  0  0
    0.0000   -1.6000    0.0000 H   0  0  0  0  0  0  0  0  0  0  0  0
   -1.6000    0.0000    0.0000 C   0  0  0  0  0  0  0  0  0  0  0  0
   -1.6000    1.6000    0.0000 H   0  0  0  0  0  0  0  0  0  0  0  0
   -3.2000    0.0000    0.0000 C   0  0  0  0  0  0  0  0  0  0  0  0
   -4.8000    0.0000    0.0000 H   0  0  0  0  0  0  0  0  0  0  0  0
   -3.9999    1.3857    0.0000 H   0  0  0  0  0  0  0  0  0  0  0  0
   -4.0001   -1.3857    0.0000 H   0  0  0  0  0  0  0  0  0  0  0  0
   -1.6000   -1.6000    0.0000 O   0  0  0  0  0  0  0  0  0  0  0  0
   -2.9856   -2.4000    0.0000 H   0  0  0  0  0  0  0  0  0  0  0  0
    0.0000    1.6000    0.0000 O   0  0  0  0  0  0  0  0  0  0  0  0
    1.3856    2.4000    0.0000 H   0  0  0  0  0  0  0  0  0  0  0  0
  1  2  1  0  0  0  0
  1  3  1  0  0  0  0
  1  4  1  0  0  0  0
  1  5  1  0  0  0  0
  5  6  1  0  0  0  0
  5  7  1  0  0  0  0
  7  8  1  0  0  0  0
  7  9  1  0  0  0  0
  9 10  1  0  0  0  0
  9 11  1  0  0  0  0
  9 12  1  0  0  0  0
  7 13  1  0  0  0  0
 13 14  1  0  0  0  0
  5 15  1  0  0  0  0
 15 16  1  0  0  0  0
M  END
> <ChemID>
102047

> <source_casrn>
513-85-9|6982-25-8

> <CAS>
513-85-9

> <SMILES>
CC(O)C(C)O

> <NAME>
2,3-BUTANEDIOL, DL-2,3-BUTANDIOL

> <preferred_name>
2,3-Butanediol

> <iupac>
butane-2,3-diol

> <MPID>
21079|23976

> <dsstox_substance_id>
DTXSID8041321

> <Canonical_QSARr>
CC(O)C(C)O

> <InChI_Code_QSARr>
InChI=1S/C4H10O2/c1-3(5)4(2)6/h3-6H,1-2H3

> <InChI Key_QSARr>
OWBTYPJTUOEWEK-UHFFFAOYSA-N

> <Salt_Solvent>
?

> <BP>
182.25

$$$$
102051
  -INDIGO-08031720192D

 24 24  0  0  0  0  0  0  0  0999 V2000
   -1.5999    0.0000    0.0000 C   0  0  0  0  0  0  0  0  0  0  0  0
   -2.4000    1.3857    0.0000 C   0  0  0  0  0  0  0  0  0  0  0  0
   -1.5999    2.7713    0.0000 H   0  0  0  0  0  0  0  0  0  0  0  0
   -4.0000    1.3857    0.0000 C   0  0  0  0  0  0  0  0  0  0  0  0
   -4.7999    2.7713    0.0000 H   0  0  0  0  0  0  0  0  0  0  0  0
   -4.8001    0.0000    0.0000 C   0  0  0  0  0  0  0  0  0  0  0  0
   -6.4000    0.0000    0.0000 H   0  0  0  0  0  0  0  0  0  0  0  0
   -4.0000   -1.3857    0.0000 C   0  0  0  0  0  0  0  0  0  0  0  0
   -4.8001   -2.7713    0.0000 H   0  0  0  0  0  0  0  0  0  0  0  0
   -2.4000   -1.3857    0.0000 C   0  0  0  0  0  0  0  0  0  0  0  0
   -1.5999   -2.7713    0.0000 H   0  0  0  0  0  0  0  0  0  0  0  0
    0.0000    0.0000    0.0000 C   0  0  0  0  0  0  0  0  0  0  0  0
    1.6001   -0.0000    0.0000 C   0  0  0  0  0  0  0  0  0  0  0  0
    3.2000   -0.0000    0.0000 H   0  0  0  0  0  0  0  0  0  0  0  0
    2.6284   -1.2256    0.0000 H   0  0  0  0  0  0  0  0  0  0  0  0
    2.6284    1.2256    0.0000 Cl  0  0  0  0  0  0  0  0  0  0  0  0
    0.0000    1.6000    0.0000 C   0  0  0  0  0  0  0  0  0  0  0  0
   -0.2779    3.1757    0.0000 H   0  0  0  0  0  0  0  0  0  0  0  0
    1.2257    2.6285    0.0000 H   0  0  0  0  0  0  0  0  0  0  0  0
    1.5035    1.0527    0.0000 H   0  0  0  0  0  0  0  0  0  0  0  0
    0.0000   -1.6000    0.0000 C   0  0  0  0  0  0  0  0  0  0  0  0
   -0.2779   -3.1757    0.0000 H   0  0  0  0  0  0  0  0  0  0  0  0
    1.2257   -2.6285    0.0000 H   0  0  0  0  0  0  0  0  0  0  0  0
    1.5035   -1.0527    0.0000 H   0  0  0  0  0  0  0  0  0  0  0  0
  1  2  1  0  0  0  0
  2  3  1  0  0  0  0
  2  4  2  0  0  0  0
  4  5  1  0  0  0  0
  4  6  1  0  0  0  0
  6  7  1  0  0  0  0
  6  8  2  0  0  0  0
  8  9  1  0  0  0  0
  8 10  1  0  0  0  0
 10  1  2  0  0  0  0
 10 11  1  0  0  0  0
  1 12  1  0  0  0  0
 12 13  1  0  0  0  0
 13 14  1  0  0  0  0
 13 15  1  0  0  0  0
 13 16  1  0  0  0  0
 12 17  1  0  0  0  0
 17 18  1  0  0  0  0
 17 19  1  0  0  0  0
 17 20  1  0  0  0  0
 12 21  1  0  0  0  0
 21 22  1  0  0  0  0
 21 23  1  0  0  0  0
 21 24  1  0  0  0  0
M  END
> <ChemID>
102051

> <source_casrn>
515-40-2

> <CAS>
515-40-2

> <SMILES>
CC(C)(CCl)c1ccccc1

> <NAME>
Benzene, (2-chloro-1,1-dimethylethyl)-

> <preferred_name>
(1-Chloro-2-methylpropan-2-yl)benzene

> <iupac>
(1-chloro-2-methylpropan-2-yl)benzene

> <MPID>
21083

> <dsstox_substance_id>
DTXSID8027167

> <Canonical_QSARr>
CC(C)(CCl)c1ccccc1

> <InChI_Code_QSARr>
InChI=1S/C10H13Cl/c1-10(2,8-11)9-6-4-3-5-7-9/h3-7H,8H2,1-2H3

> <InChI Key_QSARr>
DNXXUUPUQXSUFH-UHFFFAOYSA-N

> <Salt_Solvent>
?

> <BP>
223.0

$$$$
102055
  -INDIGO-08031720192D

 35 37  0  0  0  0  0  0  0  0999 V2000
   -0.0001   -0.0000    0.0000 C   0  0  0  0  0  0  0  0  0  0  0  0
   -0.0001   -1.6000    0.0000 H   0  0  0  0  0  0  0  0  0  0  0  0
    1.5999   -0.0000    0.0000 C   0  0  0  0  0  0  0  0  0  0  0  0
    2.3999    1.3856    0.0000 C   0  0  0  0  0  0  0  0  0  0  0  0
    1.5999    2.7712    0.0000 H   0  0  0  0  0  0  0  0  0  0  0  0
    4.0000    1.3856    0.0000 C   0  0  0  0  0  0  0  0  0  0  0  0
    4.8000    2.7712    0.0000 H   0  0  0  0  0  0  0  0  0  0  0  0
    4.8000   -0.0000    0.0000 C   0  0  0  0  0  0  0  0  0  0  0  0
    6.4000   -0.0000    0.0000 H   0  0  0  0  0  0  0  0  0  0  0  0
    4.0000   -1.3857    0.0000 C   0  0  0  0  0  0  0  0  0  0  0  0
    4.8000   -2.7713    0.0000 H   0  0  0  0  0  0  0  0  0  0  0  0
    2.3999   -1.3857    0.0000 C   0  0  0  0  0  0  0  0  0  0  0  0
    1.5999   -2.7713    0.0000 H   0  0  0  0  0  0  0  0  0  0  0  0
    0.2778    1.5756    0.0000 C   0  0  0  0  0  0  0  0  0  0  0  0
   -0.7507    2.8014    0.0000 C   0  0  0  0  0  0  0  0  0  0  0  0
   -1.5999    2.7712    0.0000 H   0  0  0  0  0  0  0  0  0  0  0  0
   -0.2034    4.3048    0.0000 C   0  0  0  0  0  0  0  0  0  0  0  0
   -1.2318    5.5306    0.0000 H   0  0  0  0  0  0  0  0  0  0  0  0
    1.3724    4.5827    0.0000 C   0  0  0  0  0  0  0  0  0  0  0  0
    1.9195    6.0862    0.0000 H   0  0  0  0  0  0  0  0  0  0  0  0
    2.4007    3.3570    0.0000 C   0  0  0  0  0  0  0  0  0  0  0  0
    3.9765    3.6349    0.0000 H   0  0  0  0  0  0  0  0  0  0  0  0
    1.8534    1.8535    0.0000 C   0  0  0  0  0  0  0  0  0  0  0  0
    2.8820    0.6279    0.0000 H   0  0  0  0  0  0  0  0  0  0  0  0
   -1.5999   -0.0000    0.0000 C   0  0  0  0  0  0  0  0  0  0  0  0
   -2.3999    1.3856    0.0000 C   0  0  0  0  0  0  0  0  0  0  0  0
   -2.3451    2.2338    0.0000 H   0  0  0  0  0  0  0  0  0  0  0  0
   -4.0000    1.3856    0.0000 C   0  0  0  0  0  0  0  0  0  0  0  0
   -4.8000    2.7712    0.0000 H   0  0  0  0  0  0  0  0  0  0  0  0
   -4.8000   -0.0000    0.0000 C   0  0  0  0  0  0  0  0  0  0  0  0
   -6.4000   -0.0000    0.0000 H   0  0  0  0  0  0  0  0  0  0  0  0
   -4.0000   -1.3857    0.0000 C   0  0  0  0  0  0  0  0  0  0  0  0
   -4.8000   -2.7713    0.0000 H   0  0  0  0  0  0  0  0  0  0  0  0
   -2.3999   -1.3857    0.0000 C   0  0  0  0  0  0  0  0  0  0  0  0
   -1.5999   -2.7713    0.0000 H   0  0  0  0  0  0  0  0  0  0  0  0
  1  2  1  0  0  0  0
  1  3  1  0  0  0  0
  3  4  1  0  0  0  0
  4  5  1  0  0  0  0
  4  6  2  0  0  0  0
  6  7  1  0  0  0  0
  6  8  1  0  0  0  0
  8  9  1  0  0  0  0
  8 10  2  0  0  0  0
 10 11  1  0  0  0  0
 10 12  1  0  0  0  0
 12  3  2  0  0  0  0
 12 13  1  0  0  0  0
  1 14  1  0  0  0  0
 14 15  1  0  0  0  0
 15 16  1  0  0  0  0
 15 17  2  0  0  0  0
 17 18  1  0  0  0  0
 17 19  1  0  0  0  0
 19 20  1  0  0  0  0
 19 21  2  0  0  0  0
 21 22  1  0  0  0  0
 21 23  1  0  0  0  0
 23 14  2  0  0  0  0
 23 24  1  0  0  0  0
  1 25  1  0  0  0  0
 25 26  1  0  0  0  0
 26 27  1  0  0  0  0
 26 28  2  0  0  0  0
 28 29  1  0  0  0  0
 28 30  1  0  0  0  0
 30 31  1  0  0  0  0
 30 32  2  0  0  0  0
 32 33  1  0  0  0  0
 32 34  1  0  0  0  0
 34 25  2  0  0  0  0
 34 35  1  0  0  0  0
M  END
> <ChemID>
102055

> <source_casrn>
519-73-3

> <CAS>
519-73-3

> <SMILES>
c1ccccc1C(c1ccccc1)c1ccccc1

> <NAME>
TRIPHENYLMETHANE

> <preferred_name>
Benzene, 1,1',1''-methylidynetris-

> <iupac>


> <MPID>
21087

> <dsstox_substance_id>
DTXSID3060164

> <Canonical_QSARr>
c1ccccc1C(c1ccccc1)c1ccccc1

> <InChI_Code_QSARr>
InChI=1S/C19H16/c1-4-10-16(11-5-1)19(17-12-6-2-7-13-17)18-14-8-3-9-15-18/h1-15,19H

> <InChI Key_QSARr>
AAAQKTZKLRYKHR-UHFFFAOYSA-N

> <Salt_Solvent>
?

> <BP>
359.0

$$$$
102060
  -INDIGO-08031720192D

 19 19  0  0  0  0  0  0  0  0999 V2000
    0.8000    1.3856    0.0000 C   0  0  0  0  0  0  0  0  0  0  0  0
    1.5999    2.7713    0.0000 H   0  0  0  0  0  0  0  0  0  0  0  0
   -0.0001    2.7713    0.0000 H   0  0  0  0  0  0  0  0  0  0  0  0
    2.4000    1.3856    0.0000 H   0  0  0  0  0  0  0  0  0  0  0  0
   -0.0001    0.0000    0.0000 C   0  0  0  0  0  0  0  0  0  0  0  0
    0.8000   -1.3856    0.0000 C   0  0  0  0  0  0  0  0  0  0  0  0
    2.4000   -1.3856    0.0000 C   0  0  0  0  0  0  0  0  0  0  0  0
    4.0000   -1.3856    0.0000 H   0  0  0  0  0  0  0  0  0  0  0  0
    3.2001   -2.7713    0.0000 H   0  0  0  0  0  0  0  0  0  0  0  0
    3.2001    0.0000    0.0000 H   0  0  0  0  0  0  0  0  0  0  0  0
   -0.0001   -2.7713    0.0000 C   0  0  0  0  0  0  0  0  0  0  0  0
    0.8000   -4.1569    0.0000 H   0  0  0  0  0  0  0  0  0  0  0  0
   -1.6001   -2.7713    0.0000 C   0  0  0  0  0  0  0  0  0  0  0  0
   -2.4000   -4.1569    0.0000 H   0  0  0  0  0  0  0  0  0  0  0  0
   -2.4000   -1.3856    0.0000 C   0  0  0  0  0  0  0  0  0  0  0  0
   -4.0000   -1.3856    0.0000 H   0  0  0  0  0  0  0  0  0  0  0  0
   -1.6001    0.0000    0.0000 C   0  0  0  0  0  0  0  0  0  0  0  0
   -2.4000    1.3856    0.0000 O   0  0  0  0  0  0  0  0  0  0  0  0
   -4.0000    1.3856    0.0000 H   0  0  0  0  0  0  0  0  0  0  0  0
  1  2  1  0  0  0  0
  1  3  1  0  0  0  0
  1  4  1  0  0  0  0
  1  5  1  0  0  0  0
  5  6  1  0  0  0  0
  6  7  1  0  0  0  0
  7  8  1  0  0  0  0
  7  9  1  0  0  0  0
  7 10  1  0  0  0  0
  6 11  2  0  0  0  0
 11 12  1  0  0  0  0
 11 13  1  0  0  0  0
 13 14  1  0  0  0  0
 13 15  2  0  0  0  0
 15 16  1  0  0  0  0
 15 17  1  0  0  0  0
 17  5  2  0  0  0  0
 17 18  1  0  0  0  0
 18 19  1  0  0  0  0
M  END
> <ChemID>
102060

> <source_casrn>
526-75-0

> <CAS>
526-75-0

> <SMILES>
Cc1cccc(O)c1C

> <NAME>
2,3-DIMETHYLPHENOL

> <preferred_name>
2,3-Dimethylphenol

> <iupac>
2,3-dimethylphenol

> <MPID>
21091

> <dsstox_substance_id>
DTXSID6025143

> <Canonical_QSARr>
Cc1cccc(O)c1C

> <InChI_Code_QSARr>
InChI=1S/C8H10O/c1-6-4-3-5-8(9)7(6)2/h3-5,9H,1-2H3

> <InChI Key_QSARr>
QWBBPBRQALCEIZ-UHFFFAOYSA-N

> <Salt_Solvent>
?

> <BP>
216.9

$$$$
102064
  -INDIGO-08031720192D

 20 20  0  0  0  0  0  0  0  0999 V2000
    2.4000    1.3856    0.0000 O   0  0  0  0  0  0  0  0  0  0  0  0
    4.0000    1.3856    0.0000 H   0  0  0  0  0  0  0  0  0  0  0  0
    1.6001    0.0000    0.0000 C   0  0  0  0  0  0  0  0  0  0  0  0
   -0.0001    0.0000    0.0000 C   0  0  0  0  0  0  0  0  0  0  0  0
   -0.8000    1.3856    0.0000 C   0  0  0  0  0  0  0  0  0  0  0  0
   -1.6001    2.7713    0.0000 H   0  0  0  0  0  0  0  0  0  0  0  0
   -0.0001    2.7713    0.0000 H   0  0  0  0  0  0  0  0  0  0  0  0
   -2.4000    1.3856    0.0000 H   0  0  0  0  0  0  0  0  0  0  0  0
   -0.8000   -1.3856    0.0000 C   0  0  0  0  0  0  0  0  0  0  0  0
   -2.4000   -1.3856    0.0000 C   0  0  0  0  0  0  0  0  0  0  0  0
   -4.0000   -1.3856    0.0000 H   0  0  0  0  0  0  0  0  0  0  0  0
   -3.2001   -2.7713    0.0000 H   0  0  0  0  0  0  0  0  0  0  0  0
   -3.1999    0.0000    0.0000 H   0  0  0  0  0  0  0  0  0  0  0  0
   -0.0001   -2.7713    0.0000 C   0  0  0  0  0  0  0  0  0  0  0  0
   -0.8000   -4.1569    0.0000 H   0  0  0  0  0  0  0  0  0  0  0  0
    1.6001   -2.7713    0.0000 C   0  0  0  0  0  0  0  0  0  0  0  0
    2.4000   -4.1569    0.0000 O   0  0  0  0  0  0  0  0  0  0  0  0
    4.0000   -4.1569    0.0000 H   0  0  0  0  0  0  0  0  0  0  0  0
    2.4000   -1.3856    0.0000 C   0  0  0  0  0  0  0  0  0  0  0  0
    4.0000   -1.3856    0.0000 H   0  0  0  0  0  0  0  0  0  0  0  0
  1  2  1  0  0  0  0
  1  3  1  0  0  0  0
  3  4  1  0  0  0  0
  4  5  1  0  0  0  0
  5  6  1  0  0  0  0
  5  7  1  0  0  0  0
  5  8  1  0  0  0  0
  4  9  2  0  0  0  0
  9 10  1  0  0  0  0
 10 11  1  0  0  0  0
 10 12  1  0  0  0  0
 10 13  1  0  0  0  0
  9 14  1  0  0  0  0
 14 15  1  0  0  0  0
 14 16  2  0  0  0  0
 16 17  1  0  0  0  0
 17 18  1  0  0  0  0
 16 19  1  0  0  0  0
 19  3  2  0  0  0  0
 19 20  1  0  0  0  0
M  END
> <ChemID>
102064

> <source_casrn>
527-55-9

> <CAS>
527-55-9

> <SMILES>
Cc1cc(O)cc(O)c1C

> <NAME>
4,5-Dimethyl resorcinol

> <preferred_name>
4-Methylorcinol

> <iupac>
4,5-dimethylbenzene-1,3-diol

> <MPID>
21095

> <dsstox_substance_id>
DTXSID40200663

> <Canonical_QSARr>
Cc1cc(O)cc(O)c1C

> <InChI_Code_QSARr>
InChI=1S/C8H10O2/c1-5-3-7(9)4-8(10)6(5)2/h3-4,9-10H,1-2H3

> <InChI Key_QSARr>
RCNCKKACINZDOI-UHFFFAOYSA-N

> <Salt_Solvent>
?

> <BP>
284.0

$$$$
102068
  -INDIGO-08031720192D

 16 16  0  0  0  0  0  0  0  0999 V2000
   -2.7713   -0.0000    0.0000 O   0  0  0  0  0  0  0  0  0  0  0  0
   -1.3856    0.8000    0.0000 N   0  0  0  0  0  0  0  0  0  0  0  0
   -1.3856    2.4000    0.0000 O   0  0  0  0  0  0  0  0  0  0  0  0
    0.0000   -0.0000    0.0000 C   0  0  0  0  0  0  0  0  0  0  0  0
    0.0000   -1.6000    0.0000 C   0  0  0  0  0  0  0  0  0  0  0  0
   -1.3856   -2.4000    0.0000 N   0  0  0  0  0  0  0  0  0  0  0  0
   -1.3856   -4.0000    0.0000 O   0  0  0  0  0  0  0  0  0  0  0  0
   -2.7713   -1.6000    0.0000 O   0  0  0  0  0  0  0  0  0  0  0  0
    1.3856   -2.4000    0.0000 C   0  0  0  0  0  0  0  0  0  0  0  0
    1.3856   -4.0000    0.0000 H   0  0  0  0  0  0  0  0  0  0  0  0
    2.7713   -1.6000    0.0000 C   0  0  0  0  0  0  0  0  0  0  0  0
    4.1569   -2.4000    0.0000 H   0  0  0  0  0  0  0  0  0  0  0  0
    2.7713   -0.0000    0.0000 C   0  0  0  0  0  0  0  0  0  0  0  0
    4.1569    0.8000    0.0000 H   0  0  0  0  0  0  0  0  0  0  0  0
    1.3856    0.8000    0.0000 C   0  0  0  0  0  0  0  0  0  0  0  0
    1.3856    2.4000    0.0000 H   0  0  0  0  0  0  0  0  0  0  0  0
  1  2  1  0  0  0  0
  2  3  2  0  0  0  0
  2  4  1  0  0  0  0
  4  5  1  0  0  0  0
  5  6  1  0  0  0  0
  6  7  2  0  0  0  0
  6  8  1  0  0  0  0
  5  9  2  0  0  0  0
  9 10  1  0  0  0  0
  9 11  1  0  0  0  0
 11 12  1  0  0  0  0
 11 13  2  0  0  0  0
 13 14  1  0  0  0  0
 13 15  1  0  0  0  0
 15  4  2  0  0  0  0
 15 16  1  0  0  0  0
M  CHG  4   1  -1   2   1   6   1   8  -1
M  END
> <ChemID>
102068

> <source_casrn>
528-29-0

> <CAS>
528-29-0

> <SMILES>
[O-][N+](=O)c1ccccc1[N+]([O-])=O

> <NAME>
O-DINITROBENZENE

> <preferred_name>
1,2-Dinitrobenzene

> <iupac>
1,2-dinitrobenzene

> <MPID>
21099

> <dsstox_substance_id>
DTXSID4024066

> <Canonical_QSARr>
[O-][N+](=O)c1ccccc1[N+]([O-])=O

> <InChI_Code_QSARr>
InChI=1S/C6H4N2O4/c9-7(10)5-3-1-2-4-6(5)8(11)12/h1-4H

> <InChI Key_QSARr>
IZUKQUVSCNEFMJ-UHFFFAOYSA-N

> <Salt_Solvent>
?

> <BP>
318.0

$$$$
102072
  -INDIGO-08031720192D

 16 16  0  0  0  0  0  0  0  0999 V2000
    0.0000    1.6000    0.0000 C   0  0  0  0  0  0  0  0  0  0  0  0
    1.3856    2.4000    0.0000 C   0  0  0  0  0  0  0  0  0  0  0  0
    2.7713    3.2000    0.0000 N   0  0  0  0  0  0  0  0  0  0  0  0
   -1.3856    2.4000    0.0000 C   0  0  0  0  0  0  0  0  0  0  0  0
   -1.3856    4.0000    0.0000 H   0  0  0  0  0  0  0  0  0  0  0  0
   -2.7713    1.6000    0.0000 C   0  0  0  0  0  0  0  0  0  0  0  0
   -4.1569    2.4000    0.0000 H   0  0  0  0  0  0  0  0  0  0  0  0
   -2.7713    0.0000    0.0000 C   0  0  0  0  0  0  0  0  0  0  0  0
   -4.1569   -0.8000    0.0000 H   0  0  0  0  0  0  0  0  0  0  0  0
   -1.3856   -0.8000    0.0000 C   0  0  0  0  0  0  0  0  0  0  0  0
   -1.3856   -2.4000    0.0000 H   0  0  0  0  0  0  0  0  0  0  0  0
    0.0000    0.0000    0.0000 C   0  0  0  0  0  0  0  0  0  0  0  0
    1.3856   -0.8000    0.0000 C   0  0  0  0  0  0  0  0  0  0  0  0
    2.7713   -1.6000    0.0000 H   0  0  0  0  0  0  0  0  0  0  0  0
    1.3856   -2.4000    0.0000 H   0  0  0  0  0  0  0  0  0  0  0  0
    2.7713    0.0000    0.0000 H   0  0  0  0  0  0  0  0  0  0  0  0
  1  2  1  0  0  0  0
  2  3  3  0  0  0  0
  1  4  1  0  0  0  0
  4  5  1  0  0  0  0
  4  6  2  0  0  0  0
  6  7  1  0  0  0  0
  6  8  1  0  0  0  0
  8  9  1  0  0  0  0
  8 10  2  0  0  0  0
 10 11  1  0  0  0  0
 10 12  1  0  0  0  0
 12  1  2  0  0  0  0
 12 13  1  0  0  0  0
 13 14  1  0  0  0  0
 13 15  1  0  0  0  0
 13 16  1  0  0  0  0
M  END
> <ChemID>
102072

> <source_casrn>
529-19-1

> <CAS>
529-19-1

> <SMILES>
Cc1ccccc1C#N

> <NAME>
2-METHYLBENZONITRILE

> <preferred_name>
2-Tolunitrile

> <iupac>
2-methylbenzonitrile

> <MPID>
21103

> <dsstox_substance_id>
DTXSID6022050

> <Canonical_QSARr>
Cc1ccccc1C#N

> <InChI_Code_QSARr>
InChI=1S/C8H7N/c1-7-4-2-3-5-8(7)6-9/h2-5H,1H3

> <InChI Key_QSARr>
NWPNXBQSRGKSJB-UHFFFAOYSA-N

> <Salt_Solvent>
?

> <BP>
205.0

$$$$
102076
  -INDIGO-08031720192D

 23 24  0  0  0  0  0  0  0  0999 V2000
    4.8000    2.7713    0.0000 C   0  0  0  0  0  0  0  0  0  0  0  0
    6.4000    2.7713    0.0000 H   0  0  0  0  0  0  0  0  0  0  0  0
    4.0000    1.3857    0.0000 C   0  0  0  0  0  0  0  0  0  0  0  0
    4.8000    0.0000    0.0000 O   0  0  0  0  0  0  0  0  0  0  0  0
    6.4000    0.0000    0.0000 H   0  0  0  0  0  0  0  0  0  0  0  0
    2.4000    1.3857    0.0000 C   0  0  0  0  0  0  0  0  0  0  0  0
    1.6001    0.0000    0.0000 C   0  0  0  0  0  0  0  0  0  0  0  0
    1.3222   -1.5757    0.0000 H   0  0  0  0  0  0  0  0  0  0  0  0
    3.1035   -0.5472    0.0000 H   0  0  0  0  0  0  0  0  0  0  0  0
    0.0000    0.0000    0.0000 C   0  0  0  0  0  0  0  0  0  0  0  0
   -1.5036   -0.5472    0.0000 H   0  0  0  0  0  0  0  0  0  0  0  0
    0.2779   -1.5757    0.0000 H   0  0  0  0  0  0  0  0  0  0  0  0
   -0.8000    1.3857    0.0000 C   0  0  0  0  0  0  0  0  0  0  0  0
   -2.0257    2.4140    0.0000 H   0  0  0  0  0  0  0  0  0  0  0  0
   -2.0257    0.3572    0.0000 H   0  0  0  0  0  0  0  0  0  0  0  0
    0.0000    2.7713    0.0000 C   0  0  0  0  0  0  0  0  0  0  0  0
    0.2779    4.3470    0.0000 H   0  0  0  0  0  0  0  0  0  0  0  0
   -1.5036    3.3185    0.0000 H   0  0  0  0  0  0  0  0  0  0  0  0
    1.6001    2.7713    0.0000 C   0  0  0  0  0  0  0  0  0  0  0  0
    2.4000    4.1569    0.0000 C   0  0  0  0  0  0  0  0  0  0  0  0
    1.6001    5.5426    0.0000 H   0  0  0  0  0  0  0  0  0  0  0  0
    4.0000    4.1569    0.0000 C   0  0  0  0  0  0  0  0  0  0  0  0
    4.8000    5.5426    0.0000 H   0  0  0  0  0  0  0  0  0  0  0  0
  1  2  1  0  0  0  0
  1  3  1  0  0  0  0
  3  4  1  0  0  0  0
  4  5  1  0  0  0  0
  3  6  2  0  0  0  0
  6  7  1  0  0  0  0
  7  8  1  0  0  0  0
  7  9  1  0  0  0  0
  7 10  1  0  0  0  0
 10 11  1  0  0  0  0
 10 12  1  0  0  0  0
 10 13  1  0  0  0  0
 13 14  1  0  0  0  0
 13 15  1  0  0  0  0
 13 16  1  0  0  0  0
 16 17  1  0  0  0  0
 16 18  1  0  0  0  0
 16 19  1  0  0  0  0
 19  6  1  0  0  0  0
 19 20  2  0  0  0  0
 20 21  1  0  0  0  0
 20 22  1  0  0  0  0
 22  1  2  0  0  0  0
 22 23  1  0  0  0  0
M  END
> <ChemID>
102076

> <source_casrn>
529-35-1

> <CAS>
529-35-1

> <SMILES>
Oc1cccc2CCCCc21

> <NAME>
1-NAPHTHALENOL, 5,6,7,8-TETRAHYDRO-

> <preferred_name>
1-Naphthalenol, 5,6,7,8-tetrahydro-

> <iupac>
5,6,7,8-TETRAHYDRONAPHTHALEN-1-OL

> <MPID>
21107

> <dsstox_substance_id>
DTXSID8074570

> <Canonical_QSARr>
Oc1cccc2CCCCc21

> <InChI_Code_QSARr>
InChI=1S/C10H12O/c11-10-7-3-5-8-4-1-2-6-9(8)10/h3,5,7,11H,1-2,4,6H2

> <InChI Key_QSARr>
SCWNNOCLLOHZIG-UHFFFAOYSA-N

> <Salt_Solvent>
?

> <BP>
266.0

$$$$
102080
  -INDIGO-08031720192D

 26 27  0  0  0  0  0  0  0  0999 V2000
   -1.3857   -0.8001    0.0000 C   0  0  0  0  0  0  0  0  0  0  0  0
    0.0001   -0.0000    0.0000 C   0  0  0  0  0  0  0  0  0  0  0  0
    1.5757   -0.2779    0.0000 C   0  0  0  0  0  0  0  0  0  0  0  0
    2.1230   -1.7814    0.0000 C   0  0  0  0  0  0  0  0  0  0  0  0
    1.0945   -3.0070    0.0000 H   0  0  0  0  0  0  0  0  0  0  0  0
    3.6985   -2.0592    0.0000 C   0  0  0  0  0  0  0  0  0  0  0  0
    4.2459   -3.5626    0.0000 H   0  0  0  0  0  0  0  0  0  0  0  0
    4.7270   -0.8335    0.0000 C   0  0  0  0  0  0  0  0  0  0  0  0
    6.3028   -1.1113    0.0000 H   0  0  0  0  0  0  0  0  0  0  0  0
    4.1799    0.6700    0.0000 C   0  0  0  0  0  0  0  0  0  0  0  0
    5.2083    1.8957    0.0000 H   0  0  0  0  0  0  0  0  0  0  0  0
    2.6041    0.9479    0.0000 C   0  0  0  0  0  0  0  0  0  0  0  0
    2.0570    2.4513    0.0000 H   0  0  0  0  0  0  0  0  0  0  0  0
   -0.2779    1.5757    0.0000 C   0  0  0  0  0  0  0  0  0  0  0  0
    0.9479    2.6042    0.0000 H   0  0  0  0  0  0  0  0  0  0  0  0
   -1.7814    2.1230    0.0000 H   0  0  0  0  0  0  0  0  0  0  0  0
   -1.3857   -2.4000    0.0000 C   0  0  0  0  0  0  0  0  0  0  0  0
    0.0001   -3.2000    0.0000 H   0  0  0  0  0  0  0  0  0  0  0  0
   -2.7713   -3.2000    0.0000 C   0  0  0  0  0  0  0  0  0  0  0  0
   -2.7713   -4.8000    0.0000 H   0  0  0  0  0  0  0  0  0  0  0  0
   -4.1569   -2.4000    0.0000 C   0  0  0  0  0  0  0  0  0  0  0  0
   -5.5426   -3.2000    0.0000 H   0  0  0  0  0  0  0  0  0  0  0  0
   -4.1569   -0.8001    0.0000 C   0  0  0  0  0  0  0  0  0  0  0  0
   -5.5426   -0.0000    0.0000 H   0  0  0  0  0  0  0  0  0  0  0  0
   -2.7713   -0.0000    0.0000 C   0  0  0  0  0  0  0  0  0  0  0  0
   -2.7713    1.6000    0.0000 H   0  0  0  0  0  0  0  0  0  0  0  0
  1  2  1  0  0  0  0
  2  3  1  0  0  0  0
  3  4  1  0  0  0  0
  4  5  1  0  0  0  0
  4  6  2  0  0  0  0
  6  7  1  0  0  0  0
  6  8  1  0  0  0  0
  8  9  1  0  0  0  0
  8 10  2  0  0  0  0
 10 11  1  0  0  0  0
 10 12  1  0  0  0  0
 12  3  2  0  0  0  0
 12 13  1  0  0  0  0
  2 14  2  0  0  0  0
 14 15  1  0  0  0  0
 14 16  1  0  0  0  0
  1 17  1  0  0  0  0
 17 18  1  0  0  0  0
 17 19  2  0  0  0  0
 19 20  1  0  0  0  0
 19 21  1  0  0  0  0
 21 22  1  0  0  0  0
 21 23  2  0  0  0  0
 23 24  1  0  0  0  0
 23 25  1  0  0  0  0
 25  1  2  0  0  0  0
 25 26  1  0  0  0  0
M  END
> <ChemID>
102080

> <source_casrn>
530-48-3

> <CAS>
530-48-3

> <SMILES>
C=C(c1ccccc1)c1ccccc1

> <NAME>
1,1-DIPHENYLETHYLENE

> <preferred_name>
Benzene, 1,1'-ethenylidenebis-

> <iupac>
1-phenylethenylbenzene

> <MPID>
21111

> <dsstox_substance_id>
DTXSID5060190

> <Canonical_QSARr>
C=C(c1ccccc1)c1ccccc1

> <InChI_Code_QSARr>
InChI=1S/C14H12/c1-12(13-8-4-2-5-9-13)14-10-6-3-7-11-14/h2-11H,1H2

> <InChI Key_QSARr>
ZMYIIHDQURVDRB-UHFFFAOYSA-N

> <Salt_Solvent>
?

> <BP>
277.0

$$$$
102084
  -INDIGO-08031720192D

 17 17  0  0  0  0  0  0  0  0999 V2000
   -2.4001    1.3856    0.0000 O   0  0  0  0  0  0  0  0  0  0  0  0
   -1.6000   -0.0000    0.0000 C   0  0  0  0  0  0  0  0  0  0  0  0
    0.0000    0.0000    0.0000 C   0  0  0  0  0  0  0  0  0  0  0  0
    0.8000    1.3856    0.0000 C   0  0  0  0  0  0  0  0  0  0  0  0
    0.0000    2.7713    0.0000 H   0  0  0  0  0  0  0  0  0  0  0  0
    2.4000    1.3856    0.0000 C   0  0  0  0  0  0  0  0  0  0  0  0
    3.2001    2.7713    0.0000 H   0  0  0  0  0  0  0  0  0  0  0  0
    3.2001    0.0000    0.0000 C   0  0  0  0  0  0  0  0  0  0  0  0
    4.8000   -0.0000    0.0000 H   0  0  0  0  0  0  0  0  0  0  0  0
    2.4000   -1.3856    0.0000 C   0  0  0  0  0  0  0  0  0  0  0  0
    3.2001   -2.7713    0.0000 H   0  0  0  0  0  0  0  0  0  0  0  0
    0.8000   -1.3856    0.0000 C   0  0  0  0  0  0  0  0  0  0  0  0
    0.0000   -2.7713    0.0000 H   0  0  0  0  0  0  0  0  0  0  0  0
   -2.4001   -1.3856    0.0000 C   0  0  0  0  0  0  0  0  0  0  0  0
   -3.2000   -2.7713    0.0000 H   0  0  0  0  0  0  0  0  0  0  0  0
   -4.0000   -1.3856    0.0000 H   0  0  0  0  0  0  0  0  0  0  0  0
   -1.6000   -2.7713    0.0000 Cl  0  0  0  0  0  0  0  0  0  0  0  0
  1  2  2  0  0  0  0
  2  3  1  0  0  0  0
  3  4  1  0  0  0  0
  4  5  1  0  0  0  0
  4  6  2  0  0  0  0
  6  7  1  0  0  0  0
  6  8  1  0  0  0  0
  8  9  1  0  0  0  0
  8 10  2  0  0  0  0
 10 11  1  0  0  0  0
 10 12  1  0  0  0  0
 12  3  2  0  0  0  0
 12 13  1  0  0  0  0
  2 14  1  0  0  0  0
 14 15  1  0  0  0  0
 14 16  1  0  0  0  0
 14 17  1  0  0  0  0
M  END
> <ChemID>
102084

> <source_casrn>
532-27-4

> <CAS>
532-27-4

> <SMILES>
O=C(CCl)c1ccccc1

> <NAME>
2-CHLORO-1-PHENYLETHANONE

> <preferred_name>
2-Chloroacetophenone

> <iupac>
2-chloro-1-phenylethanone

> <MPID>
21115

> <dsstox_substance_id>
DTXSID9020293

> <Canonical_QSARr>
O=C(CCl)c1ccccc1

> <InChI_Code_QSARr>
InChI=1S/C8H7ClO/c9-6-8(10)7-4-2-1-3-5-7/h1-5H,6H2

> <InChI Key_QSARr>
IMACFCSSMIZSPP-UHFFFAOYSA-N

> <Salt_Solvent>
?

> <BP>
247.0

$$$$
102088
  -INDIGO-08031720192D

 30 29  0  0  0  0  0  0  0  0999 V2000
    2.4514   -2.0570    0.0000 O   0  0  0  0  0  0  0  0  0  0  0  0
    2.7292   -0.4813    0.0000 C   0  0  0  0  0  0  0  0  0  0  0  0
    4.2327    0.0661    0.0000 N   0  0  0  0  0  0  0  0  0  0  0  0
    5.4583   -0.9625    0.0000 C   0  0  0  0  0  0  0  0  0  0  0  0
    5.8047   -2.5245    0.0000 H   0  0  0  0  0  0  0  0  0  0  0  0
    4.5986   -2.3119    0.0000 H   0  0  0  0  0  0  0  0  0  0  0  0
    6.9618   -0.4153    0.0000 C   0  0  0  0  0  0  0  0  0  0  0  0
    8.1876   -1.4437    0.0000 H   0  0  0  0  0  0  0  0  0  0  0  0
    8.4654    0.1320    0.0000 H   0  0  0  0  0  0  0  0  0  0  0  0
    6.6841   -1.9909    0.0000 H   0  0  0  0  0  0  0  0  0  0  0  0
    4.5105    1.6417    0.0000 C   0  0  0  0  0  0  0  0  0  0  0  0
    6.1090    1.5719    0.0000 H   0  0  0  0  0  0  0  0  0  0  0  0
    5.6901    2.7227    0.0000 H   0  0  0  0  0  0  0  0  0  0  0  0
    3.2849    2.6702    0.0000 C   0  0  0  0  0  0  0  0  0  0  0  0
    3.5626    4.2458    0.0000 H   0  0  0  0  0  0  0  0  0  0  0  0
    2.0591    3.6986    0.0000 H   0  0  0  0  0  0  0  0  0  0  0  0
    4.7884    3.2174    0.0000 H   0  0  0  0  0  0  0  0  0  0  0  0
    1.5036    0.5473    0.0000 C   0  0  0  0  0  0  0  0  0  0  0  0
    1.1572    2.1093    0.0000 H   0  0  0  0  0  0  0  0  0  0  0  0
    2.3633    1.8967    0.0000 H   0  0  0  0  0  0  0  0  0  0  0  0
    0.0000    0.0000    0.0000 C   0  0  0  0  0  0  0  0  0  0  0  0
    0.8001   -1.3856    0.0000 H   0  0  0  0  0  0  0  0  0  0  0  0
   -1.3857   -0.8000    0.0000 C   0  0  0  0  0  0  0  0  0  0  0  0
   -2.7713   -1.6000    0.0000 H   0  0  0  0  0  0  0  0  0  0  0  0
   -2.7713    0.0000    0.0000 H   0  0  0  0  0  0  0  0  0  0  0  0
   -1.3857   -2.4000    0.0000 H   0  0  0  0  0  0  0  0  0  0  0  0
   -0.8000    1.3856    0.0000 C   0  0  0  0  0  0  0  0  0  0  0  0
   -1.6000    2.7713    0.0000 H   0  0  0  0  0  0  0  0  0  0  0  0
    0.0000    2.7713    0.0000 H   0  0  0  0  0  0  0  0  0  0  0  0
   -2.4001    1.3856    0.0000 H   0  0  0  0  0  0  0  0  0  0  0  0
  1  2  2  0  0  0  0
  2  3  1  0  0  0  0
  3  4  1  0  0  0  0
  4  5  1  0  0  0  0
  4  6  1  0  0  0  0
  4  7  1  0  0  0  0
  7  8  1  0  0  0  0
  7  9  1  0  0  0  0
  7 10  1  0  0  0  0
  3 11  1  0  0  0  0
 11 12  1  0  0  0  0
 11 13  1  0  0  0  0
 11 14  1  0  0  0  0
 14 15  1  0  0  0  0
 14 16  1  0  0  0  0
 14 17  1  0  0  0  0
  2 18  1  0  0  0  0
 18 19  1  0  0  0  0
 18 20  1  0  0  0  0
 18 21  1  0  0  0  0
 21 22  1  0  0  0  0
 21 23  1  0  0  0  0
 23 24  1  0  0  0  0
 23 25  1  0  0  0  0
 23 26  1  0  0  0  0
 21 27  1  0  0  0  0
 27 28  1  0  0  0  0
 27 29  1  0  0  0  0
 27 30  1  0  0  0  0
M  END
> <ChemID>
102088

> <source_casrn>
533-32-4

> <CAS>
533-32-4

> <SMILES>
CC(C)CC(=O)N(CC)CC

> <NAME>
Isovaleryl diethylamide

> <preferred_name>
Isovaleryl diethylamide

> <iupac>
N,N-diethyl-3-methylbutanamide

> <MPID>
21119

> <dsstox_substance_id>
DTXSID50201444

> <Canonical_QSARr>
CC(C)CC(=O)N(CC)CC

> <InChI_Code_QSARr>
InChI=1S/C9H19NO/c1-5-10(6-2)9(11)7-8(3)4/h8H,5-7H2,1-4H3

> <InChI Key_QSARr>
QZMQDHNCNUGQSO-UHFFFAOYSA-N

> <Salt_Solvent>
?

> <BP>
211.0

$$$$
102092
  -INDIGO-08031720192D

 10  9  0  0  0  0  0  0  0  0999 V2000
   -0.0000   -1.6000    0.0000 O   0  0  0  0  0  0  0  0  0  0  0  0
    0.0000    0.0000    0.0000 C   0  0  0  0  0  0  0  0  0  0  0  0
    1.3856    0.8000    0.0000 C   0  0  0  0  0  0  0  0  0  0  0  0
    2.7713    1.6000    0.0000 H   0  0  0  0  0  0  0  0  0  0  0  0
    2.7713    0.0000    0.0000 H   0  0  0  0  0  0  0  0  0  0  0  0
    1.3856    2.4000    0.0000 Cl  0  0  0  0  0  0  0  0  0  0  0  0
   -1.3856    0.8000    0.0000 C   0  0  0  0  0  0  0  0  0  0  0  0
   -2.7713    1.6000    0.0000 H   0  0  0  0  0  0  0  0  0  0  0  0
   -2.7713    0.0000    0.0000 H   0  0  0  0  0  0  0  0  0  0  0  0
   -1.3856    2.4000    0.0000 Cl  0  0  0  0  0  0  0  0  0  0  0  0
  1  2  2  0  0  0  0
  2  3  1  0  0  0  0
  3  4  1  0  0  0  0
  3  5  1  0  0  0  0
  3  6  1  0  0  0  0
  2  7  1  0  0  0  0
  7  8  1  0  0  0  0
  7  9  1  0  0  0  0
  7 10  1  0  0  0  0
M  END
> <ChemID>
102092

> <source_casrn>
534-07-6

> <CAS>
534-07-6

> <SMILES>
O=C(CCl)CCl

> <NAME>
1,3-DICHLOROACETONE

> <preferred_name>
1,3-Dichloropropanone

> <iupac>
1,3-dichloropropan-2-one

> <MPID>
21123

> <dsstox_substance_id>
DTXSID2021577

> <Canonical_QSARr>
O=C(CCl)CCl

> <InChI_Code_QSARr>
InChI=1S/C3H4Cl2O/c4-1-3(6)2-5/h1-2H2

> <InChI Key_QSARr>
SUNMBRGCANLOEG-UHFFFAOYSA-N

> <Salt_Solvent>
?

> <BP>
173.4

$$$$
102096
  -INDIGO-08031720192D

 20 20  0  0  0  0  0  0  0  0999 V2000
    1.3856   -2.4000    0.0000 O   0  0  0  0  0  0  0  0  0  0  0  0
    1.3856   -4.0000    0.0000 H   0  0  0  0  0  0  0  0  0  0  0  0
    0.0000   -1.6000    0.0000 C   0  0  0  0  0  0  0  0  0  0  0  0
    0.0000    0.0000    0.0000 C   0  0  0  0  0  0  0  0  0  0  0  0
    1.3857    0.8000    0.0000 C   0  0  0  0  0  0  0  0  0  0  0  0
    2.7713    1.6000    0.0000 H   0  0  0  0  0  0  0  0  0  0  0  0
    1.3857    2.4000    0.0000 H   0  0  0  0  0  0  0  0  0  0  0  0
    2.7713    0.0000    0.0000 H   0  0  0  0  0  0  0  0  0  0  0  0
   -1.3857    0.8000    0.0000 C   0  0  0  0  0  0  0  0  0  0  0  0
   -1.3856    2.4000    0.0000 H   0  0  0  0  0  0  0  0  0  0  0  0
   -2.7713    0.0000    0.0000 C   0  0  0  0  0  0  0  0  0  0  0  0
   -4.1570    0.8000    0.0000 N   0  0  0  0  0  0  0  0  0  0  0  0
   -5.5426    0.0000    0.0000 O   0  0  0  0  0  0  0  0  0  0  0  0
   -4.1570    2.4000    0.0000 O   0  0  0  0  0  0  0  0  0  0  0  0
   -2.7713   -1.6000    0.0000 C   0  0  0  0  0  0  0  0  0  0  0  0
   -4.1570   -2.4000    0.0000 H   0  0  0  0  0  0  0  0  0  0  0  0
   -1.3857   -2.4000    0.0000 C   0  0  0  0  0  0  0  0  0  0  0  0
   -1.3856   -4.0000    0.0000 N   0  0  0  0  0  0  0  0  0  0  0  0
   -2.7713   -4.8000    0.0000 O   0  0  0  0  0  0  0  0  0  0  0  0
    0.0000   -4.8000    0.0000 O   0  0  0  0  0  0  0  0  0  0  0  0
  1  2  1  0  0  0  0
  1  3  1  0  0  0  0
  3  4  1  0  0  0  0
  4  5  1  0  0  0  0
  5  6  1  0  0  0  0
  5  7  1  0  0  0  0
  5  8  1  0  0  0  0
  4  9  2  0  0  0  0
  9 10  1  0  0  0  0
  9 11  1  0  0  0  0
 11 12  1  0  0  0  0
 12 13  1  0  0  0  0
 12 14  2  0  0  0  0
 11 15  2  0  0  0  0
 15 16  1  0  0  0  0
 15 17  1  0  0  0  0
 17  3  2  0  0  0  0
 17 18  1  0  0  0  0
 18 19  1  0  0  0  0
 18 20  2  0  0  0  0
M  CHG  4  12   1  13  -1  18   1  19  -1
M  END
> <ChemID>
102096

> <source_casrn>
534-52-1

> <CAS>
534-52-1

> <SMILES>
Cc1cc(cc(c1O)[N+]([O-])=O)[N+]([O-])=O

> <NAME>
4,6-DINITRO-O-CRESOL

> <preferred_name>
2-Methyl-4,6-dinitrophenol

> <iupac>
2-methyl-4,6-dinitrophenol

> <MPID>
21127

> <dsstox_substance_id>
DTXSID1022053

> <Canonical_QSARr>
Cc1cc(cc(c1O)[N+]([O-])=O)[N+]([O-])=O

> <InChI_Code_QSARr>
InChI=1S/C7H6N2O5/c1-4-2-5(8(11)12)3-6(7(4)10)9(13)14/h2-3,10H,1H3

> <InChI Key_QSARr>
ZXVONLUNISGICL-UHFFFAOYSA-N

> <Salt_Solvent>
?

> <BP>
378.0

$$$$
102101
  -INDIGO-08031720192D

 14 13  0  0  0  0  0  0  0  0999 V2000
   -2.7713    0.0000    0.0000 C   0  0  0  0  0  0  0  0  0  0  0  0
   -1.3857    0.8000    0.0000 O   0  0  0  0  0  0  0  0  0  0  0  0
    0.0000    0.0000    0.0000 C   0  0  0  0  0  0  0  0  0  0  0  0
    0.6122   -1.4782    0.0000 H   0  0  0  0  0  0  0  0  0  0  0  0
   -0.6122   -1.4782    0.0000 H   0  0  0  0  0  0  0  0  0  0  0  0
    1.3856    0.8000    0.0000 C   0  0  0  0  0  0  0  0  0  0  0  0
    2.7713    1.6000    0.0000 H   0  0  0  0  0  0  0  0  0  0  0  0
    2.7713    0.0000    0.0000 H   0  0  0  0  0  0  0  0  0  0  0  0
    1.3856    2.4000    0.0000 H   0  0  0  0  0  0  0  0  0  0  0  0
   -4.1569    0.8000    0.0000 C   0  0  0  0  0  0  0  0  0  0  0  0
   -5.5426    1.6000    0.0000 H   0  0  0  0  0  0  0  0  0  0  0  0
   -5.5426    0.0000    0.0000 Cl  0  0  0  0  0  0  0  0  0  0  0  0
   -4.1569    2.4000    0.0000 Cl  0  0  0  0  0  0  0  0  0  0  0  0
   -2.7713   -1.6000    0.0000 O   0  0  0  0  0  0  0  0  0  0  0  0
  1  2  1  0  0  0  0
  2  3  1  0  0  0  0
  3  4  1  0  0  0  0
  3  5  1  0  0  0  0
  3  6  1  0  0  0  0
  6  7  1  0  0  0  0
  6  8  1  0  0  0  0
  6  9  1  0  0  0  0
  1 10  1  0  0  0  0
 10 11  1  0  0  0  0
 10 12  1  0  0  0  0
 10 13  1  0  0  0  0
  1 14  2  0  0  0  0
M  END
> <ChemID>
102101

> <source_casrn>
535-15-9

> <CAS>
535-15-9

> <SMILES>
CCOC(=O)C(Cl)Cl

> <NAME>
ETHYL DICHLOROACETATE

> <preferred_name>
Acetic acid, dichloro-, ethyl ester

> <iupac>
Ethyl 2,2-dichloroacetate

> <MPID>
21131

> <dsstox_substance_id>
DTXSID7060205

> <Canonical_QSARr>
CCOC(=O)C(Cl)Cl

> <InChI_Code_QSARr>
InChI=1S/C4H6Cl2O2/c1-2-8-4(7)3(5)6/h3H,2H2,1H3

> <InChI Key_QSARr>
IWYBVQLPTCMVFO-UHFFFAOYSA-N

> <Salt_Solvent>
?

> <BP>
155.0

$$$$
102105
  -INDIGO-08031720192D

 25 25  0  0  0  0  0  0  0  0999 V2000
   -0.0001    1.6000    0.0000 C   0  0  0  0  0  0  0  0  0  0  0  0
   -0.0001    3.2000    0.0000 H   0  0  0  0  0  0  0  0  0  0  0  0
    1.3857    2.4000    0.0000 H   0  0  0  0  0  0  0  0  0  0  0  0
    1.3857    0.8000    0.0000 H   0  0  0  0  0  0  0  0  0  0  0  0
   -0.0001    0.0000    0.0000 C   0  0  0  0  0  0  0  0  0  0  0  0
   -0.0001   -1.6000    0.0000 H   0  0  0  0  0  0  0  0  0  0  0  0
   -1.6000    0.0000    0.0000 C   0  0  0  0  0  0  0  0  0  0  0  0
   -2.4000    1.3856    0.0000 C   0  0  0  0  0  0  0  0  0  0  0  0
   -1.6000    2.7713    0.0000 H   0  0  0  0  0  0  0  0  0  0  0  0
   -3.9999    1.3856    0.0000 C   0  0  0  0  0  0  0  0  0  0  0  0
   -4.8000    2.7713    0.0000 H   0  0  0  0  0  0  0  0  0  0  0  0
   -4.8000    0.0000    0.0000 C   0  0  0  0  0  0  0  0  0  0  0  0
   -6.4001    0.0000    0.0000 C   0  0  0  0  0  0  0  0  0  0  0  0
   -7.6693    0.9740    0.0000 H   0  0  0  0  0  0  0  0  0  0  0  0
   -6.6089    1.5863    0.0000 H   0  0  0  0  0  0  0  0  0  0  0  0
   -7.1999   -1.3857    0.0000 O   0  0  0  0  0  0  0  0  0  0  0  0
   -8.8000   -1.3857    0.0000 H   0  0  0  0  0  0  0  0  0  0  0  0
   -3.9999   -1.3857    0.0000 C   0  0  0  0  0  0  0  0  0  0  0  0
   -4.8000   -2.7713    0.0000 H   0  0  0  0  0  0  0  0  0  0  0  0
   -2.4000   -1.3857    0.0000 C   0  0  0  0  0  0  0  0  0  0  0  0
   -1.6000   -2.7713    0.0000 H   0  0  0  0  0  0  0  0  0  0  0  0
    1.5757   -0.2778    0.0000 C   0  0  0  0  0  0  0  0  0  0  0  0
    3.1514   -0.5557    0.0000 H   0  0  0  0  0  0  0  0  0  0  0  0
    2.1228   -1.7813    0.0000 H   0  0  0  0  0  0  0  0  0  0  0  0
    2.6041    0.9478    0.0000 H   0  0  0  0  0  0  0  0  0  0  0  0
  1  2  1  0  0  0  0
  1  3  1  0  0  0  0
  1  4  1  0  0  0  0
  1  5  1  0  0  0  0
  5  6  1  0  0  0  0
  5  7  1  0  0  0  0
  7  8  1  0  0  0  0
  8  9  1  0  0  0  0
  8 10  2  0  0  0  0
 10 11  1  0  0  0  0
 10 12  1  0  0  0  0
 12 13  1  0  0  0  0
 13 14  1  0  0  0  0
 13 15  1  0  0  0  0
 13 16  1  0  0  0  0
 16 17  1  0  0  0  0
 12 18  2  0  0  0  0
 18 19  1  0  0  0  0
 18 20  1  0  0  0  0
 20  7  2  0  0  0  0
 20 21  1  0  0  0  0
  5 22  1  0  0  0  0
 22 23  1  0  0  0  0
 22 24  1  0  0  0  0
 22 25  1  0  0  0  0
M  END
> <ChemID>
102105

> <source_casrn>
536-60-7

> <CAS>
536-60-7

> <SMILES>
CC(C)c1ccc(CO)cc1

> <NAME>
Benzenemethanol, 4-(1-methylethyl)-

> <preferred_name>
4-Isopropylbenzyl alcohol

> <iupac>
[4-(propan-2-yl)phenyl]methanol

> <MPID>
21135

> <dsstox_substance_id>
DTXSID0021626

> <Canonical_QSARr>
CC(C)c1ccc(CO)cc1

> <InChI_Code_QSARr>
InChI=1S/C10H14O/c1-8(2)10-5-3-9(7-11)4-6-10/h3-6,8,11H,7H2,1-2H3

> <InChI Key_QSARr>
OIGWAXDAPKFNCQ-UHFFFAOYSA-N

> <Salt_Solvent>
?

> <BP>
249.0

$$$$
102109
  -INDIGO-08031720192D

 20 20  0  0  0  0  0  0  0  0999 V2000
    2.7713    1.6000    0.0000 N   0  0  0  0  0  0  0  0  0  0  0  0
    2.7713    0.0000    0.0000 C   0  0  0  0  0  0  0  0  0  0  0  0
    4.1569   -0.8000    0.0000 C   0  0  0  0  0  0  0  0  0  0  0  0
    5.5426   -1.6000    0.0000 H   0  0  0  0  0  0  0  0  0  0  0  0
    5.5426    0.0000    0.0000 H   0  0  0  0  0  0  0  0  0  0  0  0
    4.1569   -2.4000    0.0000 H   0  0  0  0  0  0  0  0  0  0  0  0
    1.3857   -0.8000    0.0000 C   0  0  0  0  0  0  0  0  0  0  0  0
    1.3857   -2.4000    0.0000 H   0  0  0  0  0  0  0  0  0  0  0  0
   -0.0001    0.0000    0.0000 C   0  0  0  0  0  0  0  0  0  0  0  0
   -1.3857   -0.8000    0.0000 C   0  0  0  0  0  0  0  0  0  0  0  0
   -1.9980   -2.2782    0.0000 H   0  0  0  0  0  0  0  0  0  0  0  0
   -0.7734   -2.2782    0.0000 H   0  0  0  0  0  0  0  0  0  0  0  0
   -2.7713    0.0000    0.0000 C   0  0  0  0  0  0  0  0  0  0  0  0
   -4.1569   -0.8000    0.0000 H   0  0  0  0  0  0  0  0  0  0  0  0
   -4.1569    0.8000    0.0000 H   0  0  0  0  0  0  0  0  0  0  0  0
   -2.7713   -1.6000    0.0000 H   0  0  0  0  0  0  0  0  0  0  0  0
   -0.0001    1.6000    0.0000 C   0  0  0  0  0  0  0  0  0  0  0  0
   -1.3857    2.4000    0.0000 H   0  0  0  0  0  0  0  0  0  0  0  0
    1.3857    2.4000    0.0000 C   0  0  0  0  0  0  0  0  0  0  0  0
    1.3857    4.0000    0.0000 H   0  0  0  0  0  0  0  0  0  0  0  0
  1  2  1  0  0  0  0
  2  3  1  0  0  0  0
  3  4  1  0  0  0  0
  3  5  1  0  0  0  0
  3  6  1  0  0  0  0
  2  7  2  0  0  0  0
  7  8  1  0  0  0  0
  7  9  1  0  0  0  0
  9 10  1  0  0  0  0
 10 11  1  0  0  0  0
 10 12  1  0  0  0  0
 10 13  1  0  0  0  0
 13 14  1  0  0  0  0
 13 15  1  0  0  0  0
 13 16  1  0  0  0  0
  9 17  2  0  0  0  0
 17 18  1  0  0  0  0
 17 19  1  0  0  0  0
 19  1  2  0  0  0  0
 19 20  1  0  0  0  0
M  END
> <ChemID>
102109

> <source_casrn>
536-88-9

> <CAS>
536-88-9

> <SMILES>
Cc1cc(CC)cc[n]1

> <NAME>
Pyridine, 4-ethyl-2-methyl-

> <preferred_name>
Pyridine, 4-ethyl-2-methyl-

> <iupac>
4-ethyl-2-methylpyridine

> <MPID>
21139

> <dsstox_substance_id>
DTXSID6060214

> <Canonical_QSARr>
Cc1cc(CC)cc[n]1

> <InChI_Code_QSARr>
InChI=1S/C8H11N/c1-3-8-4-5-9-7(2)6-8/h4-6H,3H2,1-2H3

> <InChI Key_QSARr>
KNCHDRLWPAKSII-UHFFFAOYSA-N

> <Salt_Solvent>
?

> <BP>
179.0

$$$$
102114
  -INDIGO-08031720192D

 19 19  0  0  0  0  0  0  0  0999 V2000
   -0.0001   -0.0000    0.0000 C   0  0  0  0  0  0  0  0  0  0  0  0
   -0.0001   -1.6000    0.0000 C   0  0  0  0  0  0  0  0  0  0  0  0
    1.3857   -2.4000    0.0000 H   0  0  0  0  0  0  0  0  0  0  0  0
   -1.3857   -2.4000    0.0000 C   0  0  0  0  0  0  0  0  0  0  0  0
   -1.3857   -4.0000    0.0000 H   0  0  0  0  0  0  0  0  0  0  0  0
   -2.7713   -1.6000    0.0000 C   0  0  0  0  0  0  0  0  0  0  0  0
   -4.1569   -2.4000    0.0000 H   0  0  0  0  0  0  0  0  0  0  0  0
   -2.7713   -0.0000    0.0000 C   0  0  0  0  0  0  0  0  0  0  0  0
   -4.1569    0.8000    0.0000 H   0  0  0  0  0  0  0  0  0  0  0  0
   -1.3857    0.8000    0.0000 C   0  0  0  0  0  0  0  0  0  0  0  0
   -1.3857    2.4000    0.0000 H   0  0  0  0  0  0  0  0  0  0  0  0
    1.3857    0.8000    0.0000 C   0  0  0  0  0  0  0  0  0  0  0  0
    1.9980    2.2782    0.0000 H   0  0  0  0  0  0  0  0  0  0  0  0
    0.7734    2.2782    0.0000 H   0  0  0  0  0  0  0  0  0  0  0  0
    2.7713   -0.0000    0.0000 O   0  0  0  0  0  0  0  0  0  0  0  0
    4.1569    0.8000    0.0000 C   0  0  0  0  0  0  0  0  0  0  0  0
    5.5426    1.6000    0.0000 H   0  0  0  0  0  0  0  0  0  0  0  0
    5.5426   -0.0000    0.0000 H   0  0  0  0  0  0  0  0  0  0  0  0
    4.1569    2.4000    0.0000 H   0  0  0  0  0  0  0  0  0  0  0  0
  1  2  1  0  0  0  0
  2  3  1  0  0  0  0
  2  4  2  0  0  0  0
  4  5  1  0  0  0  0
  4  6  1  0  0  0  0
  6  7  1  0  0  0  0
  6  8  2  0  0  0  0
  8  9  1  0  0  0  0
  8 10  1  0  0  0  0
 10  1  2  0  0  0  0
 10 11  1  0  0  0  0
  1 12  1  0  0  0  0
 12 13  1  0  0  0  0
 12 14  1  0  0  0  0
 12 15  1  0  0  0  0
 15 16  1  0  0  0  0
 16 17  1  0  0  0  0
 16 18  1  0  0  0  0
 16 19  1  0  0  0  0
M  END
> <ChemID>
102114

> <source_casrn>
538-86-3

> <CAS>
538-86-3

> <SMILES>
COCc1ccccc1

> <NAME>
BENZYL METHYL ETHER

> <preferred_name>
Benzyl methyl ether

> <iupac>
METHOXYMETHYLBENZENE

> <MPID>
21143

> <dsstox_substance_id>
DTXSID5060227

> <Canonical_QSARr>
COCc1ccccc1

> <InChI_Code_QSARr>
InChI=1S/C8H10O/c1-9-7-8-5-3-2-4-6-8/h2-6H,7H2,1H3

> <InChI Key_QSARr>
GQKZBCPTCWJTAS-UHFFFAOYSA-N

> <Salt_Solvent>
?

> <BP>
170.0

$$$$
102119
  -INDIGO-08031720192D

 25 25  0  0  0  0  0  0  0  0999 V2000
   -3.1179    2.7239    0.0000 O   0  0  0  0  0  0  0  0  0  0  0  0
   -1.5530    2.3912    0.0000 C   0  0  0  0  0  0  0  0  0  0  0  0
   -0.3638    3.4618    0.0000 H   0  0  0  0  0  0  0  0  0  0  0  0
   -1.3856    0.8000    0.0000 C   0  0  0  0  0  0  0  0  0  0  0  0
    0.0000   -0.0000    0.0000 C   0  0  0  0  0  0  0  0  0  0  0  0
   -0.6122   -1.4782    0.0000 H   0  0  0  0  0  0  0  0  0  0  0  0
    0.6123   -1.4782    0.0000 H   0  0  0  0  0  0  0  0  0  0  0  0
    1.3856    0.8000    0.0000 C   0  0  0  0  0  0  0  0  0  0  0  0
    1.9979    2.2782    0.0000 H   0  0  0  0  0  0  0  0  0  0  0  0
    0.7734    2.2782    0.0000 H   0  0  0  0  0  0  0  0  0  0  0  0
    2.7712   -0.0000    0.0000 C   0  0  0  0  0  0  0  0  0  0  0  0
    2.7712   -1.6000    0.0000 H   0  0  0  0  0  0  0  0  0  0  0  0
    4.1570    0.8000    0.0000 C   0  0  0  0  0  0  0  0  0  0  0  0
    5.5426   -0.0000    0.0000 C   0  0  0  0  0  0  0  0  0  0  0  0
    6.9282   -0.8000    0.0000 H   0  0  0  0  0  0  0  0  0  0  0  0
    6.9282    0.8000    0.0000 H   0  0  0  0  0  0  0  0  0  0  0  0
    5.5426   -1.6000    0.0000 H   0  0  0  0  0  0  0  0  0  0  0  0
    4.1570    2.4000    0.0000 C   0  0  0  0  0  0  0  0  0  0  0  0
    4.1570    4.0000    0.0000 H   0  0  0  0  0  0  0  0  0  0  0  0
    5.5426    3.2000    0.0000 H   0  0  0  0  0  0  0  0  0  0  0  0
    2.7712    3.2000    0.0000 H   0  0  0  0  0  0  0  0  0  0  0  0
   -2.8473    0.1493    0.0000 C   0  0  0  0  0  0  0  0  0  0  0  0
   -3.1800   -1.4158    0.0000 H   0  0  0  0  0  0  0  0  0  0  0  0
   -3.9178    1.3382    0.0000 C   0  0  0  0  0  0  0  0  0  0  0  0
   -5.5092    1.1710    0.0000 H   0  0  0  0  0  0  0  0  0  0  0  0
  1  2  1  0  0  0  0
  2  3  1  0  0  0  0
  2  4  2  0  0  0  0
  4  5  1  0  0  0  0
  5  6  1  0  0  0  0
  5  7  1  0  0  0  0
  5  8  1  0  0  0  0
  8  9  1  0  0  0  0
  8 10  1  0  0  0  0
  8 11  1  0  0  0  0
 11 12  1  0  0  0  0
 11 13  2  0  0  0  0
 13 14  1  0  0  0  0
 14 15  1  0  0  0  0
 14 16  1  0  0  0  0
 14 17  1  0  0  0  0
 13 18  1  0  0  0  0
 18 19  1  0  0  0  0
 18 20  1  0  0  0  0
 18 21  1  0  0  0  0
  4 22  1  0  0  0  0
 22 23  1  0  0  0  0
 22 24  2  0  0  0  0
 24  1  1  0  0  0  0
 24 25  1  0  0  0  0
M  END
> <ChemID>
102119

> <source_casrn>
539-52-6

> <CAS>
539-52-6

> <SMILES>
CC(C)=CCCc1cocc1

> <NAME>
FURAN, 3-(4-METHYL-3-PENTENYL)-

> <preferred_name>
Perillene

> <iupac>
3-(4-methylpent-3-enyl)furan

> <MPID>
21147

> <dsstox_substance_id>
DTXSID40202167

> <Canonical_QSARr>
CC(C)=CCCc1cocc1

> <InChI_Code_QSARr>
InChI=1S/C10H14O/c1-9(2)4-3-5-10-6-7-11-8-10/h4,6-8H,3,5H2,1-2H3

> <InChI Key_QSARr>
XNGKCOFXDHYSGR-UHFFFAOYSA-N

> <Salt_Solvent>
?

> <BP>
185.5

$$$$
102123
  -INDIGO-08031720192D

 26 25  0  0  0  0  0  0  0  0999 V2000
    4.1569   -0.8000    0.0000 C   0  0  0  0  0  0  0  0  0  0  0  0
    4.1569   -2.4000    0.0000 O   0  0  0  0  0  0  0  0  0  0  0  0
    2.7713    0.0000    0.0000 O   0  0  0  0  0  0  0  0  0  0  0  0
    1.3856   -0.8000    0.0000 C   0  0  0  0  0  0  0  0  0  0  0  0
    0.7733   -2.2782    0.0000 H   0  0  0  0  0  0  0  0  0  0  0  0
    1.9980   -2.2782    0.0000 H   0  0  0  0  0  0  0  0  0  0  0  0
   -0.0001    0.0000    0.0000 C   0  0  0  0  0  0  0  0  0  0  0  0
   -0.8000   -1.3856    0.0000 H   0  0  0  0  0  0  0  0  0  0  0  0
   -1.3856    0.8000    0.0000 C   0  0  0  0  0  0  0  0  0  0  0  0
   -2.7713    1.6000    0.0000 H   0  0  0  0  0  0  0  0  0  0  0  0
   -2.7713    0.0000    0.0000 H   0  0  0  0  0  0  0  0  0  0  0  0
   -1.3856    2.4000    0.0000 H   0  0  0  0  0  0  0  0  0  0  0  0
    0.7999    1.3856    0.0000 C   0  0  0  0  0  0  0  0  0  0  0  0
    1.5999    2.7713    0.0000 H   0  0  0  0  0  0  0  0  0  0  0  0
    2.4001    1.3856    0.0000 H   0  0  0  0  0  0  0  0  0  0  0  0
   -0.0001    2.7713    0.0000 H   0  0  0  0  0  0  0  0  0  0  0  0
    5.5426    0.0000    0.0000 C   0  0  0  0  0  0  0  0  0  0  0  0
    6.1549    1.4782    0.0000 H   0  0  0  0  0  0  0  0  0  0  0  0
    4.9302    1.4782    0.0000 H   0  0  0  0  0  0  0  0  0  0  0  0
    6.9283   -0.8000    0.0000 C   0  0  0  0  0  0  0  0  0  0  0  0
    6.3159   -2.2782    0.0000 H   0  0  0  0  0  0  0  0  0  0  0  0
    7.5404   -2.2782    0.0000 H   0  0  0  0  0  0  0  0  0  0  0  0
    8.3138    0.0000    0.0000 C   0  0  0  0  0  0  0  0  0  0  0  0
    9.6995    0.8000    0.0000 H   0  0  0  0  0  0  0  0  0  0  0  0
    9.6995   -0.8000    0.0000 H   0  0  0  0  0  0  0  0  0  0  0  0
    8.3138    1.6000    0.0000 H   0  0  0  0  0  0  0  0  0  0  0  0
  1  2  2  0  0  0  0
  1  3  1  0  0  0  0
  3  4  1  0  0  0  0
  4  5  1  0  0  0  0
  4  6  1  0  0  0  0
  4  7  1  0  0  0  0
  7  8  1  0  0  0  0
  7  9  1  0  0  0  0
  9 10  1  0  0  0  0
  9 11  1  0  0  0  0
  9 12  1  0  0  0  0
  7 13  1  0  0  0  0
 13 14  1  0  0  0  0
 13 15  1  0  0  0  0
 13 16  1  0  0  0  0
  1 17  1  0  0  0  0
 17 18  1  0  0  0  0
 17 19  1  0  0  0  0
 17 20  1  0  0  0  0
 20 21  1  0  0  0  0
 20 22  1  0  0  0  0
 20 23  1  0  0  0  0
 23 24  1  0  0  0  0
 23 25  1  0  0  0  0
 23 26  1  0  0  0  0
M  END
> <ChemID>
102123

> <source_casrn>
539-90-2

> <CAS>
539-90-2

> <SMILES>
CCCC(=O)OCC(C)C

> <NAME>
Butanoic acid, 2-methylpropyl ester

> <preferred_name>
Isobutyl butyrate

> <iupac>
2-methylpropyl butanoate

> <MPID>
21151

> <dsstox_substance_id>
DTXSID8047557

> <Canonical_QSARr>
CCCC(=O)OCC(C)C

> <InChI_Code_QSARr>
InChI=1S/C8H16O2/c1-4-5-8(9)10-6-7(2)3/h7H,4-6H2,1-3H3

> <InChI Key_QSARr>
RGFNRWTWDWVHDD-UHFFFAOYSA-N

> <Salt_Solvent>
?

> <BP>
156.9

$$$$
102127
  -INDIGO-08031720192D

 29 28  0  0  0  0  0  0  0  0999 V2000
    5.5425    0.0000    0.0000 C   0  0  0  0  0  0  0  0  0  0  0  0
    5.5425   -1.6000    0.0000 O   0  0  0  0  0  0  0  0  0  0  0  0
    4.1568    0.8000    0.0000 O   0  0  0  0  0  0  0  0  0  0  0  0
    2.7714    0.0000    0.0000 C   0  0  0  0  0  0  0  0  0  0  0  0
    3.3835   -1.4782    0.0000 H   0  0  0  0  0  0  0  0  0  0  0  0
    2.1590   -1.4782    0.0000 H   0  0  0  0  0  0  0  0  0  0  0  0
    1.3857    0.8000    0.0000 C   0  0  0  0  0  0  0  0  0  0  0  0
    0.7733    2.2782    0.0000 H   0  0  0  0  0  0  0  0  0  0  0  0
    1.9980    2.2782    0.0000 H   0  0  0  0  0  0  0  0  0  0  0  0
   -0.0000    0.0000    0.0000 C   0  0  0  0  0  0  0  0  0  0  0  0
    0.6123   -1.4782    0.0000 H   0  0  0  0  0  0  0  0  0  0  0  0
   -0.6122   -1.4782    0.0000 H   0  0  0  0  0  0  0  0  0  0  0  0
   -1.3857    0.8000    0.0000 C   0  0  0  0  0  0  0  0  0  0  0  0
   -1.9979    2.2782    0.0000 H   0  0  0  0  0  0  0  0  0  0  0  0
   -0.7734    2.2782    0.0000 H   0  0  0  0  0  0  0  0  0  0  0  0
   -2.7712    0.0000    0.0000 C   0  0  0  0  0  0  0  0  0  0  0  0
   -4.1569   -0.8000    0.0000 H   0  0  0  0  0  0  0  0  0  0  0  0
   -4.1569    0.8000    0.0000 H   0  0  0  0  0  0  0  0  0  0  0  0
   -2.7712   -1.6000    0.0000 H   0  0  0  0  0  0  0  0  0  0  0  0
    6.9282    0.8000    0.0000 C   0  0  0  0  0  0  0  0  0  0  0  0
    6.3159    2.2782    0.0000 H   0  0  0  0  0  0  0  0  0  0  0  0
    7.5404    2.2782    0.0000 H   0  0  0  0  0  0  0  0  0  0  0  0
    8.3139    0.0000    0.0000 C   0  0  0  0  0  0  0  0  0  0  0  0
    8.9261   -1.4782    0.0000 H   0  0  0  0  0  0  0  0  0  0  0  0
    7.7016   -1.4782    0.0000 H   0  0  0  0  0  0  0  0  0  0  0  0
    9.6994    0.8000    0.0000 C   0  0  0  0  0  0  0  0  0  0  0  0
   11.0851    1.6000    0.0000 H   0  0  0  0  0  0  0  0  0  0  0  0
   11.0851    0.0000    0.0000 H   0  0  0  0  0  0  0  0  0  0  0  0
    9.6994    2.4000    0.0000 H   0  0  0  0  0  0  0  0  0  0  0  0
  1  2  2  0  0  0  0
  1  3  1  0  0  0  0
  3  4  1  0  0  0  0
  4  5  1  0  0  0  0
  4  6  1  0  0  0  0
  4  7  1  0  0  0  0
  7  8  1  0  0  0  0
  7  9  1  0  0  0  0
  7 10  1  0  0  0  0
 10 11  1  0  0  0  0
 10 12  1  0  0  0  0
 10 13  1  0  0  0  0
 13 14  1  0  0  0  0
 13 15  1  0  0  0  0
 13 16  1  0  0  0  0
 16 17  1  0  0  0  0
 16 18  1  0  0  0  0
 16 19  1  0  0  0  0
  1 20  1  0  0  0  0
 20 21  1  0  0  0  0
 20 22  1  0  0  0  0
 20 23  1  0  0  0  0
 23 24  1  0  0  0  0
 23 25  1  0  0  0  0
 23 26  1  0  0  0  0
 26 27  1  0  0  0  0
 26 28  1  0  0  0  0
 26 29  1  0  0  0  0
M  END
> <ChemID>
102127

> <source_casrn>
540-18-1

> <CAS>
540-18-1

> <SMILES>
CCCC(=O)OCCCCC

> <NAME>
PENTYL BUTYRATE

> <preferred_name>
Pentyl butyrate

> <iupac>
pentyl butanoate

> <MPID>
21155

> <dsstox_substance_id>
DTXSID4041604

> <Canonical_QSARr>
CCCC(=O)OCCCCC

> <InChI_Code_QSARr>
InChI=1S/C9H18O2/c1-3-5-6-8-11-9(10)7-4-2/h3-8H2,1-2H3

> <InChI Key_QSARr>
CFNJLPHOBMVMNS-UHFFFAOYSA-N

> <Salt_Solvent>
?

> <BP>
186.4

$$$$
102131
  -INDIGO-08031720192D

  6  5  0  0  0  0  0  0  0  0999 V2000
   -0.0000    0.0000    0.0000 C   0  0  0  0  0  0  0  0  0  0  0  0
    0.8000    1.3856    0.0000 H   0  0  0  0  0  0  0  0  0  0  0  0
   -1.6000    0.0000    0.0000 C   0  0  0  0  0  0  0  0  0  0  0  0
   -2.4000    1.3856    0.0000 H   0  0  0  0  0  0  0  0  0  0  0  0
   -2.4000   -1.3856    0.0000 Br  0  0  0  0  0  0  0  0  0  0  0  0
    0.8000   -1.3856    0.0000 Br  0  0  0  0  0  0  0  0  0  0  0  0
  1  2  1  0  0  0  0
  1  3  2  0  0  0  0
  3  4  1  0  0  0  0
  3  5  1  0  0  0  0
  1  6  1  0  0  0  0
M  END
> <ChemID>
102131

> <source_casrn>
540-49-8|590-11-4|590-12-5

> <CAS>
540-49-8

> <SMILES>
BrC=CBr

> <NAME>
1,2-Ethylene Dibromide, ETHENE, 1,2-DIBROMO-, (Z)-, ETHENE, 1,2-DIBROMO-, (E)-

> <preferred_name>
1,2-Dibromoethylene

> <iupac>
?

> <MPID>
21159|21408|21409

> <dsstox_substance_id>
DTXSID3060241

> <Canonical_QSARr>
BrC=CBr

> <InChI_Code_QSARr>
InChI=1S/C2H2Br2/c3-1-2-4/h1-2H/b2-1-

> <InChI Key_QSARr>
UWTUEMKLYAGTNQ-UPHRSURJSA-N

> <Salt_Solvent>
?

> <BP>
110.49999999999999

$$$$
102135
  -INDIGO-08031720192D

 10  9  0  0  0  0  0  0  0  0999 V2000
   -0.0000    0.0000    0.0000 C   0  0  0  0  0  0  0  0  0  0  0  0
    1.2693    0.9740    0.0000 H   0  0  0  0  0  0  0  0  0  0  0  0
    0.2089    1.5863    0.0000 H   0  0  0  0  0  0  0  0  0  0  0  0
   -1.6000    0.0000    0.0000 C   0  0  0  0  0  0  0  0  0  0  0  0
   -2.8693   -0.9740    0.0000 H   0  0  0  0  0  0  0  0  0  0  0  0
   -1.8089   -1.5863    0.0000 H   0  0  0  0  0  0  0  0  0  0  0  0
   -2.4000    1.3856    0.0000 S   0  0  0  0  0  0  0  0  0  0  0  0
   -4.0000    1.3856    0.0000 H   0  0  0  0  0  0  0  0  0  0  0  0
    0.8000   -1.3856    0.0000 S   0  0  0  0  0  0  0  0  0  0  0  0
    2.4000   -1.3856    0.0000 H   0  0  0  0  0  0  0  0  0  0  0  0
  1  2  1  0  0  0  0
  1  3  1  0  0  0  0
  1  4  1  0  0  0  0
  4  5  1  0  0  0  0
  4  6  1  0  0  0  0
  4  7  1  0  0  0  0
  7  8  1  0  0  0  0
  1  9  1  0  0  0  0
  9 10  1  0  0  0  0
M  END
> <ChemID>
102135

> <source_casrn>
540-63-6

> <CAS>
540-63-6

> <SMILES>
SCCS

> <NAME>
1,2-ETHANEDITHIOL

> <preferred_name>
Ethane-1,2-dithiol

> <iupac>
ethane-1,2-dithiol

> <MPID>
21163

> <dsstox_substance_id>
DTXSID9052187

> <Canonical_QSARr>
SCCS

> <InChI_Code_QSARr>
InChI=1S/C2H6S2/c3-1-2-4/h3-4H,1-2H2

> <InChI Key_QSARr>
VYMPLPIFKRHAAC-UHFFFAOYSA-N

> <Salt_Solvent>
?

> <BP>
146.0

$$$$
102139
  -INDIGO-08031720192D

 26 25  0  0  0  0  0  0  0  0999 V2000
    0.0000    0.0000    0.0000 C   0  0  0  0  0  0  0  0  0  0  0  0
    1.3857   -0.8000    0.0000 C   0  0  0  0  0  0  0  0  0  0  0  0
    1.9979   -2.2782    0.0000 H   0  0  0  0  0  0  0  0  0  0  0  0
    0.7733   -2.2782    0.0000 H   0  0  0  0  0  0  0  0  0  0  0  0
    2.7713    0.0000    0.0000 C   0  0  0  0  0  0  0  0  0  0  0  0
    1.9713    1.3857    0.0000 H   0  0  0  0  0  0  0  0  0  0  0  0
    4.1570    0.8000    0.0000 C   0  0  0  0  0  0  0  0  0  0  0  0
    5.5426    1.6000    0.0000 H   0  0  0  0  0  0  0  0  0  0  0  0
    5.5426    0.0000    0.0000 H   0  0  0  0  0  0  0  0  0  0  0  0
    4.1570    2.4000    0.0000 H   0  0  0  0  0  0  0  0  0  0  0  0
    3.5713   -1.3857    0.0000 C   0  0  0  0  0  0  0  0  0  0  0  0
    4.3713   -2.7713    0.0000 H   0  0  0  0  0  0  0  0  0  0  0  0
    3.0240   -2.8891    0.0000 H   0  0  0  0  0  0  0  0  0  0  0  0
    5.1712   -1.3857    0.0000 H   0  0  0  0  0  0  0  0  0  0  0  0
   -1.3856    0.8000    0.0000 C   0  0  0  0  0  0  0  0  0  0  0  0
   -2.7713    1.6000    0.0000 H   0  0  0  0  0  0  0  0  0  0  0  0
   -2.7713    0.0000    0.0000 H   0  0  0  0  0  0  0  0  0  0  0  0
   -1.6635    2.3757    0.0000 H   0  0  0  0  0  0  0  0  0  0  0  0
    0.8000    1.3857    0.0000 C   0  0  0  0  0  0  0  0  0  0  0  0
    1.8284    2.6113    0.0000 H   0  0  0  0  0  0  0  0  0  0  0  0
    0.2527    2.8891    0.0000 H   0  0  0  0  0  0  0  0  0  0  0  0
   -0.7756    1.6635    0.0000 H   0  0  0  0  0  0  0  0  0  0  0  0
   -0.8000   -1.3857    0.0000 C   0  0  0  0  0  0  0  0  0  0  0  0
   -1.6000   -2.7713    0.0000 H   0  0  0  0  0  0  0  0  0  0  0  0
   -0.2527   -2.8891    0.0000 H   0  0  0  0  0  0  0  0  0  0  0  0
   -2.4000   -1.3857    0.0000 H   0  0  0  0  0  0  0  0  0  0  0  0
  1  2  1  0  0  0  0
  2  3  1  0  0  0  0
  2  4  1  0  0  0  0
  2  5  1  0  0  0  0
  5  6  1  0  0  0  0
  5  7  1  0  0  0  0
  7  8  1  0  0  0  0
  7  9  1  0  0  0  0
  7 10  1  0  0  0  0
  5 11  1  0  0  0  0
 11 12  1  0  0  0  0
 11 13  1  0  0  0  0
 11 14  1  0  0  0  0
  1 15  1  0  0  0  0
 15 16  1  0  0  0  0
 15 17  1  0  0  0  0
 15 18  1  0  0  0  0
  1 19  1  0  0  0  0
 19 20  1  0  0  0  0
 19 21  1  0  0  0  0
 19 22  1  0  0  0  0
  1 23  1  0  0  0  0
 23 24  1  0  0  0  0
 23 25  1  0  0  0  0
 23 26  1  0  0  0  0
M  END
> <ChemID>
102139

> <source_casrn>
540-84-1

> <CAS>
540-84-1

> <SMILES>
CC(C)CC(C)(C)C

> <NAME>
2,2,4-TRIMETHYLPENTANE

> <preferred_name>
2,2,4-Trimethylpentane

> <iupac>
2,2,4-trimethylpentane

> <MPID>
21167

> <dsstox_substance_id>
DTXSID7024370

> <Canonical_QSARr>
CC(C)CC(C)(C)C

> <InChI_Code_QSARr>
InChI=1S/C8H18/c1-7(2)6-8(3,4)5/h7H,6H2,1-5H3

> <InChI Key_QSARr>
NHTMVDHEPJAVLT-UHFFFAOYSA-N

> <Salt_Solvent>
?

> <BP>
99.2

$$$$
102143
  -INDIGO-08031720192D

 50 50  0  0  0  0  0  0  0  0999 V2000
    1.3856    0.8000    0.0000 O   0  0  0  0  0  0  0  0  0  0  0  0
    2.0365    2.2616    0.0000 Si  0  0  0  0  0  0  0  0  0  0  0  0
    3.2255    1.1910    0.0000 C   0  0  0  0  0  0  0  0  0  0  0  0
    4.4144    0.1204    0.0000 H   0  0  0  0  0  0  0  0  0  0  0  0
    4.7471    1.6855    0.0000 H   0  0  0  0  0  0  0  0  0  0  0  0
    2.8928   -0.3739    0.0000 H   0  0  0  0  0  0  0  0  0  0  0  0
    3.4221    3.0617    0.0000 C   0  0  0  0  0  0  0  0  0  0  0  0
    4.8077    3.8617    0.0000 H   0  0  0  0  0  0  0  0  0  0  0  0
    4.9256    2.5145    0.0000 H   0  0  0  0  0  0  0  0  0  0  0  0
    3.4221    4.6616    0.0000 H   0  0  0  0  0  0  0  0  0  0  0  0
    1.7038    3.8267    0.0000 O   0  0  0  0  0  0  0  0  0  0  0  0
    0.5147    4.8973    0.0000 Si  0  0  0  0  0  0  0  0  0  0  0  0
    2.0182    5.4445    0.0000 C   0  0  0  0  0  0  0  0  0  0  0  0
    2.5654    6.9481    0.0000 H   0  0  0  0  0  0  0  0  0  0  0  0
    3.5939    5.7223    0.0000 H   0  0  0  0  0  0  0  0  0  0  0  0
    0.9897    6.6703    0.0000 H   0  0  0  0  0  0  0  0  0  0  0  0
   -0.0846    6.3808    0.0000 C   0  0  0  0  0  0  0  0  0  0  0  0
   -0.6841    7.8643    0.0000 H   0  0  0  0  0  0  0  0  0  0  0  0
    0.9004    7.6416    0.0000 H   0  0  0  0  0  0  0  0  0  0  0  0
   -1.6691    6.6035    0.0000 H   0  0  0  0  0  0  0  0  0  0  0  0
   -1.0766    5.0645    0.0000 O   0  0  0  0  0  0  0  0  0  0  0  0
   -2.4622    4.2646    0.0000 Si  0  0  0  0  0  0  0  0  0  0  0  0
   -2.5180    5.8636    0.0000 C   0  0  0  0  0  0  0  0  0  0  0  0
   -3.7787    6.8487    0.0000 H   0  0  0  0  0  0  0  0  0  0  0  0
   -2.2953    7.4480    0.0000 H   0  0  0  0  0  0  0  0  0  0  0  0
   -4.0015    5.2641    0.0000 H   0  0  0  0  0  0  0  0  0  0  0  0
   -4.0534    4.4318    0.0000 C   0  0  0  0  0  0  0  0  0  0  0  0
   -5.6445    4.5990    0.0000 H   0  0  0  0  0  0  0  0  0  0  0  0
   -4.9939    3.1374    0.0000 H   0  0  0  0  0  0  0  0  0  0  0  0
   -4.7042    5.8934    0.0000 H   0  0  0  0  0  0  0  0  0  0  0  0
   -3.1129    2.8028    0.0000 O   0  0  0  0  0  0  0  0  0  0  0  0
   -2.7802    1.2379    0.0000 Si  0  0  0  0  0  0  0  0  0  0  0  0
   -4.3182    1.6789    0.0000 C   0  0  0  0  0  0  0  0  0  0  0  0
   -5.6447    0.7841    0.0000 H   0  0  0  0  0  0  0  0  0  0  0  0
   -5.7564    2.3803    0.0000 H   0  0  0  0  0  0  0  0  0  0  0  0
   -4.2068    0.0828    0.0000 H   0  0  0  0  0  0  0  0  0  0  0  0
   -3.4311   -0.2239    0.0000 C   0  0  0  0  0  0  0  0  0  0  0  0
   -4.0819   -1.6855    0.0000 H   0  0  0  0  0  0  0  0  0  0  0  0
   -2.4906   -1.5183    0.0000 H   0  0  0  0  0  0  0  0  0  0  0  0
   -5.0222   -0.3911    0.0000 H   0  0  0  0  0  0  0  0  0  0  0  0
   -1.5912    0.1673    0.0000 O   0  0  0  0  0  0  0  0  0  0  0  0
    0.0000   -0.0001    0.0000 Si  0  0  0  0  0  0  0  0  0  0  0  0
   -0.8947   -1.3264    0.0000 C   0  0  0  0  0  0  0  0  0  0  0  0
   -0.1933   -2.7645    0.0000 H   0  0  0  0  0  0  0  0  0  0  0  0
   -1.7894   -2.6529    0.0000 H   0  0  0  0  0  0  0  0  0  0  0  0
   -0.0559   -1.5991    0.0000 H   0  0  0  0  0  0  0  0  0  0  0  0
    1.3569   -0.8478    0.0000 C   0  0  0  0  0  0  0  0  0  0  0  0
    2.7137   -1.6957    0.0000 H   0  0  0  0  0  0  0  0  0  0  0  0
    1.3010   -2.4470    0.0000 H   0  0  0  0  0  0  0  0  0  0  0  0
    0.7014   -1.4380    0.0000 H   0  0  0  0  0  0  0  0  0  0  0  0
  1  2  1  0  0  0  0
  2  3  1  0  0  0  0
  3  4  1  0  0  0  0
  3  5  1  0  0  0  0
  3  6  1  0  0  0  0
  2  7  1  0  0  0  0
  7  8  1  0  0  0  0
  7  9  1  0  0  0  0
  7 10  1  0  0  0  0
  2 11  1  0  0  0  0
 11 12  1  0  0  0  0
 12 13  1  0  0  0  0
 13 14  1  0  0  0  0
 13 15  1  0  0  0  0
 13 16  1  0  0  0  0
 12 17  1  0  0  0  0
 17 18  1  0  0  0  0
 17 19  1  0  0  0  0
 17 20  1  0  0  0  0
 12 21  1  0  0  0  0
 21 22  1  0  0  0  0
 22 23  1  0  0  0  0
 23 24  1  0  0  0  0
 23 25  1  0  0  0  0
 23 26  1  0  0  0  0
 22 27  1  0  0  0  0
 27 28  1  0  0  0  0
 27 29  1  0  0  0  0
 27 30  1  0  0  0  0
 22 31  1  0  0  0  0
 31 32  1  0  0  0  0
 32 33  1  0  0  0  0
 33 34  1  0  0  0  0
 33 35  1  0  0  0  0
 33 36  1  0  0  0  0
 32 37  1  0  0  0  0
 37 38  1  0  0  0  0
 37 39  1  0  0  0  0
 37 40  1  0  0  0  0
 32 41  1  0  0  0  0
 41 42  1  0  0  0  0
 42  1  1  0  0  0  0
 42 43  1  0  0  0  0
 43 44  1  0  0  0  0
 43 45  1  0  0  0  0
 43 46  1  0  0  0  0
 42 47  1  0  0  0  0
 47 48  1  0  0  0  0
 47 49  1  0  0  0  0
 47 50  1  0  0  0  0
M  END
> <ChemID>
102143

> <source_casrn>
541-02-6

> <CAS>
541-02-6

> <SMILES>
C[Si]1(C)O[Si](C)(C)O[Si](C)(C)O[Si](C)(C)O[Si](C)(C)O1

> <NAME>
DECAMETHYLCYCLOPENTASILOXANE

> <preferred_name>
Decamethylcyclopentasiloxane

> <iupac>
2,2,4,4,6,6,8,8,10,10-decamethyl-1,3,5,7,9,2,4,6,8,10-pentoxapentasilecane

> <MPID>
21171

> <dsstox_substance_id>
DTXSID1027184

> <Canonical_QSARr>
C[Si]1(C)O[Si](C)(C)O[Si](C)(C)O[Si](C)(C)O[Si](C)(C)O1

> <InChI_Code_QSARr>
InChI=1S/C10H30O5Si5/c1-16(2)11-17(3,4)13-19(7,8)15-20(9,10)14-18(5,6)12-16/h1-10H3

> <InChI Key_QSARr>
XMSXQFUHVRWGNA-UHFFFAOYSA-N

> <Salt_Solvent>
?

> <BP>
210.0

$$$$
102147
  -INDIGO-08031720192D

 18 17  0  0  0  0  0  0  0  0999 V2000
   -1.5035    0.5472    0.0000 C   0  0  0  0  0  0  0  0  0  0  0  0
   -1.1572    2.1093    0.0000 H   0  0  0  0  0  0  0  0  0  0  0  0
   -2.3632    1.8967    0.0000 H   0  0  0  0  0  0  0  0  0  0  0  0
   -0.0001    0.0000    0.0000 C   0  0  0  0  0  0  0  0  0  0  0  0
   -0.8000   -1.3856    0.0000 H   0  0  0  0  0  0  0  0  0  0  0  0
    1.3857   -0.8000    0.0000 C   0  0  0  0  0  0  0  0  0  0  0  0
    2.7713   -1.6000    0.0000 H   0  0  0  0  0  0  0  0  0  0  0  0
    1.3857   -2.4000    0.0000 H   0  0  0  0  0  0  0  0  0  0  0  0
    2.7713    0.0000    0.0000 H   0  0  0  0  0  0  0  0  0  0  0  0
    0.8000    1.3856    0.0000 C   0  0  0  0  0  0  0  0  0  0  0  0
    1.6000    2.7713    0.0000 H   0  0  0  0  0  0  0  0  0  0  0  0
   -0.0001    2.7713    0.0000 H   0  0  0  0  0  0  0  0  0  0  0  0
    2.4000    1.3856    0.0000 H   0  0  0  0  0  0  0  0  0  0  0  0
   -2.7292   -0.4813    0.0000 C   0  0  0  0  0  0  0  0  0  0  0  0
   -3.0754   -2.0433    0.0000 H   0  0  0  0  0  0  0  0  0  0  0  0
   -1.8695   -1.8307    0.0000 H   0  0  0  0  0  0  0  0  0  0  0  0
   -4.2327    0.0660    0.0000 S   0  0  0  0  0  0  0  0  0  0  0  0
   -5.4584   -0.9624    0.0000 H   0  0  0  0  0  0  0  0  0  0  0  0
  1  2  1  0  0  0  0
  1  3  1  0  0  0  0
  1  4  1  0  0  0  0
  4  5  1  0  0  0  0
  4  6  1  0  0  0  0
  6  7  1  0  0  0  0
  6  8  1  0  0  0  0
  6  9  1  0  0  0  0
  4 10  1  0  0  0  0
 10 11  1  0  0  0  0
 10 12  1  0  0  0  0
 10 13  1  0  0  0  0
  1 14  1  0  0  0  0
 14 15  1  0  0  0  0
 14 16  1  0  0  0  0
 14 17  1  0  0  0  0
 17 18  1  0  0  0  0
M  END
> <ChemID>
102147

> <source_casrn>
541-31-1

> <CAS>
541-31-1

> <SMILES>
CC(C)CCS

> <NAME>
ISOAMYLTHIOL

> <preferred_name>
1-Butanethiol, 3-methyl-

> <iupac>
3-Methylbutane-1-thiol

> <MPID>
21175

> <dsstox_substance_id>
DTXSID3060247

> <Canonical_QSARr>
CC(C)CCS

> <InChI_Code_QSARr>
InChI=1S/C5H12S/c1-5(2)3-4-6/h5-6H,3-4H2,1-2H3

> <InChI Key_QSARr>
GIJGXNFNUUFEGH-UHFFFAOYSA-N

> <Salt_Solvent>
?

> <BP>
120.0

$$$$
102151
  -INDIGO-08031720192D

 13 12  0  0  0  0  0  0  0  0999 V2000
    1.3856   -0.8000    0.0000 C   0  0  0  0  0  0  0  0  0  0  0  0
    2.7713   -1.6000    0.0000 H   0  0  0  0  0  0  0  0  0  0  0  0
    1.3856   -2.4000    0.0000 H   0  0  0  0  0  0  0  0  0  0  0  0
    2.7713    0.0000    0.0000 H   0  0  0  0  0  0  0  0  0  0  0  0
    0.0000    0.0000    0.0000 C   0  0  0  0  0  0  0  0  0  0  0  0
   -0.8000   -1.3856    0.0000 H   0  0  0  0  0  0  0  0  0  0  0  0
    0.8000    1.3856    0.0000 O   0  0  0  0  0  0  0  0  0  0  0  0
    2.4000    1.3856    0.0000 N   0  0  0  0  0  0  0  0  0  0  0  0
    3.2000    2.7713    0.0000 O   0  0  0  0  0  0  0  0  0  0  0  0
   -1.3857    0.8000    0.0000 C   0  0  0  0  0  0  0  0  0  0  0  0
   -2.7713    1.6000    0.0000 H   0  0  0  0  0  0  0  0  0  0  0  0
   -2.7713    0.0000    0.0000 H   0  0  0  0  0  0  0  0  0  0  0  0
   -1.3857    2.4000    0.0000 H   0  0  0  0  0  0  0  0  0  0  0  0
  1  2  1  0  0  0  0
  1  3  1  0  0  0  0
  1  4  1  0  0  0  0
  1  5  1  0  0  0  0
  5  6  1  0  0  0  0
  5  7  1  0  0  0  0
  7  8  1  0  0  0  0
  8  9  2  0  0  0  0
  5 10  1  0  0  0  0
 10 11  1  0  0  0  0
 10 12  1  0  0  0  0
 10 13  1  0  0  0  0
M  END
> <ChemID>
102151

> <source_casrn>
541-42-4

> <CAS>
541-42-4

> <SMILES>
CC(C)ON=O

> <NAME>
Nitrous acid, 1-methylethyl ester

> <preferred_name>
Isopropyl nitrite

> <iupac>
isopropyl nitrite

> <MPID>
21179

> <dsstox_substance_id>
DTXSID3052191

> <Canonical_QSARr>
CC(C)ON=O

> <InChI_Code_QSARr>
InChI=1S/C3H7NO2/c1-3(2)6-4-5/h3H,1-2H3

> <InChI Key_QSARr>
SKRDXYBATCVEMS-UHFFFAOYSA-N

> <Salt_Solvent>
?

> <BP>
40.0

$$$$
102155
  -INDIGO-08031720192D

 12 12  0  0  0  0  0  0  0  0999 V2000
    0.8000    1.3856    0.0000 Cl  0  0  0  0  0  0  0  0  0  0  0  0
   -0.0000   -0.0000    0.0000 C   0  0  0  0  0  0  0  0  0  0  0  0
    0.8000   -1.3857    0.0000 C   0  0  0  0  0  0  0  0  0  0  0  0
    2.4000   -1.3857    0.0000 H   0  0  0  0  0  0  0  0  0  0  0  0
   -0.0000   -2.7713    0.0000 C   0  0  0  0  0  0  0  0  0  0  0  0
    0.8000   -4.1569    0.0000 Cl  0  0  0  0  0  0  0  0  0  0  0  0
   -1.6000   -2.7713    0.0000 C   0  0  0  0  0  0  0  0  0  0  0  0
   -2.4000   -4.1569    0.0000 H   0  0  0  0  0  0  0  0  0  0  0  0
   -2.4000   -1.3856    0.0000 C   0  0  0  0  0  0  0  0  0  0  0  0
   -4.0000   -1.3856    0.0000 H   0  0  0  0  0  0  0  0  0  0  0  0
   -1.6000   -0.0000    0.0000 C   0  0  0  0  0  0  0  0  0  0  0  0
   -2.4000    1.3856    0.0000 H   0  0  0  0  0  0  0  0  0  0  0  0
  1  2  1  0  0  0  0
  2  3  1  0  0  0  0
  3  4  1  0  0  0  0
  3  5  2  0  0  0  0
  5  6  1  0  0  0  0
  5  7  1  0  0  0  0
  7  8  1  0  0  0  0
  7  9  2  0  0  0  0
  9 10  1  0  0  0  0
  9 11  1  0  0  0  0
 11  2  2  0  0  0  0
 11 12  1  0  0  0  0
M  END
> <ChemID>
102155

> <source_casrn>
541-73-1

> <CAS>
541-73-1

> <SMILES>
Clc1cc(Cl)ccc1

> <NAME>
3-DICHLOROBENZENE

> <preferred_name>
1,3-Dichlorobenzene

> <iupac>
1,3-dichlorobenzene

> <MPID>
21183

> <dsstox_substance_id>
DTXSID6022056

> <Canonical_QSARr>
Clc1cc(Cl)ccc1

> <InChI_Code_QSARr>
InChI=1S/C6H4Cl2/c7-5-2-1-3-6(8)4-5/h1-4H

> <InChI Key_QSARr>
ZPQOPVIELGIULI-UHFFFAOYSA-N

> <Salt_Solvent>
?

> <BP>
173.0

$$$$
102159
  -INDIGO-08031720192D

 22 21  0  0  0  0  0  0  0  0999 V2000
   -3.1670   -1.3229    0.0000 O   0  0  0  0  0  0  0  0  0  0  0  0
   -2.8892    0.2528    0.0000 C   0  0  0  0  0  0  0  0  0  0  0  0
   -1.3857    0.8000    0.0000 O   0  0  0  0  0  0  0  0  0  0  0  0
    0.0001   -0.0000    0.0000 C   0  0  0  0  0  0  0  0  0  0  0  0
    1.3857   -0.8000    0.0000 H   0  0  0  0  0  0  0  0  0  0  0  0
    0.8001    1.3857    0.0000 C   0  0  0  0  0  0  0  0  0  0  0  0
    1.6000    2.7713    0.0000 H   0  0  0  0  0  0  0  0  0  0  0  0
    2.4000    1.3857    0.0000 H   0  0  0  0  0  0  0  0  0  0  0  0
    0.0001    2.7713    0.0000 H   0  0  0  0  0  0  0  0  0  0  0  0
   -0.5472   -1.5035    0.0000 C   0  0  0  0  0  0  0  0  0  0  0  0
   -1.0944   -3.0070    0.0000 H   0  0  0  0  0  0  0  0  0  0  0  0
    0.4812   -2.7291    0.0000 H   0  0  0  0  0  0  0  0  0  0  0  0
   -2.1229   -1.7814    0.0000 H   0  0  0  0  0  0  0  0  0  0  0  0
   -4.1148    1.2812    0.0000 C   0  0  0  0  0  0  0  0  0  0  0  0
   -3.2551    2.6307    0.0000 H   0  0  0  0  0  0  0  0  0  0  0  0
   -4.4611    2.8433    0.0000 H   0  0  0  0  0  0  0  0  0  0  0  0
   -5.6183    0.7340    0.0000 C   0  0  0  0  0  0  0  0  0  0  0  0
   -5.8961   -0.8417    0.0000 O   0  0  0  0  0  0  0  0  0  0  0  0
   -6.8440    1.7625    0.0000 C   0  0  0  0  0  0  0  0  0  0  0  0
   -8.0697    2.7909    0.0000 H   0  0  0  0  0  0  0  0  0  0  0  0
   -8.3475    1.2153    0.0000 H   0  0  0  0  0  0  0  0  0  0  0  0
   -6.5662    3.3381    0.0000 H   0  0  0  0  0  0  0  0  0  0  0  0
  1  2  2  0  0  0  0
  2  3  1  0  0  0  0
  3  4  1  0  0  0  0
  4  5  1  0  0  0  0
  4  6  1  0  0  0  0
  6  7  1  0  0  0  0
  6  8  1  0  0  0  0
  6  9  1  0  0  0  0
  4 10  1  0  0  0  0
 10 11  1  0  0  0  0
 10 12  1  0  0  0  0
 10 13  1  0  0  0  0
  2 14  1  0  0  0  0
 14 15  1  0  0  0  0
 14 16  1  0  0  0  0
 14 17  1  0  0  0  0
 17 18  2  0  0  0  0
 17 19  1  0  0  0  0
 19 20  1  0  0  0  0
 19 21  1  0  0  0  0
 19 22  1  0  0  0  0
M  END
> <ChemID>
102159

> <source_casrn>
542-08-5

> <CAS>
542-08-5

> <SMILES>
CC(=O)CC(=O)OC(C)C

> <NAME>
Butanoic acid, 3-oxo-, 1-methylethyl ester

> <preferred_name>
Butanoic acid, 3-oxo-, 1-methylethyl ester

> <iupac>
propan-2-yl 3-oxobutanoate

> <MPID>
21187

> <dsstox_substance_id>
DTXSID7060253

> <Canonical_QSARr>
CC(=O)CC(=O)OC(C)C

> <InChI_Code_QSARr>
InChI=1S/C7H12O3/c1-5(2)10-7(9)4-6(3)8/h5H,4H2,1-3H3

> <InChI Key_QSARr>
GVIIRWAJDFKJMJ-UHFFFAOYSA-N

> <Salt_Solvent>
?

> <BP>
186.0

$$$$
102163
  -INDIGO-08031720192D

 48 48  0  0  0  0  0  0  0  0999 V2000
   -1.3956    6.9045    0.0000 O   0  0  0  0  0  0  0  0  0  0  0  0
   -0.1807    5.8634    0.0000 C   0  0  0  0  0  0  0  0  0  0  0  0
    1.0659    6.8665    0.0000 C   0  0  0  0  0  0  0  0  0  0  0  0
   -0.3437    7.6235    0.0000 H   0  0  0  0  0  0  0  0  0  0  0  0
    0.6597    8.4141    0.0000 H   0  0  0  0  0  0  0  0  0  0  0  0
    2.5907    7.3516    0.0000 C   0  0  0  0  0  0  0  0  0  0  0  0
    1.7764    8.7289    0.0000 H   0  0  0  0  0  0  0  0  0  0  0  0
    3.0442    8.8859    0.0000 H   0  0  0  0  0  0  0  0  0  0  0  0
    4.1875    7.2531    0.0000 C   0  0  0  0  0  0  0  0  0  0  0  0
    4.2039    8.8530    0.0000 H   0  0  0  0  0  0  0  0  0  0  0  0
    5.1648    8.5199    0.0000 H   0  0  0  0  0  0  0  0  0  0  0  0
    5.6410    6.5842    0.0000 C   0  0  0  0  0  0  0  0  0  0  0  0
    6.2344    8.0702    0.0000 H   0  0  0  0  0  0  0  0  0  0  0  0
    7.0100    7.4126    0.0000 H   0  0  0  0  0  0  0  0  0  0  0  0
    6.7549    5.4357    0.0000 C   0  0  0  0  0  0  0  0  0  0  0  0
    7.8449    6.6070    0.0000 H   0  0  0  0  0  0  0  0  0  0  0  0
    8.3305    5.7135    0.0000 H   0  0  0  0  0  0  0  0  0  0  0  0
    7.3786    3.9622    0.0000 C   0  0  0  0  0  0  0  0  0  0  0  0
    8.8181    4.6606    0.0000 H   0  0  0  0  0  0  0  0  0  0  0  0
    8.8706    3.3842    0.0000 H   0  0  0  0  0  0  0  0  0  0  0  0
    7.4279    2.3629    0.0000 C   0  0  0  0  0  0  0  0  0  0  0  0
    9.0210    2.2152    0.0000 H   0  0  0  0  0  0  0  0  0  0  0  0
    8.6103    1.2850    0.0000 H   0  0  0  0  0  0  0  0  0  0  0  0
    6.8961    0.8538    0.0000 C   0  0  0  0  0  0  0  0  0  0  0  0
    8.2818    0.0539    0.0000 H   0  0  0  0  0  0  0  0  0  0  0  0
    5.8551   -0.3612    0.0000 C   0  0  0  0  0  0  0  0  0  0  0  0
    6.8581   -1.6077    0.0000 H   0  0  0  0  0  0  0  0  0  0  0  0
    4.4455   -1.1181    0.0000 C   0  0  0  0  0  0  0  0  0  0  0  0
    5.6920   -2.1212    0.0000 H   0  0  0  0  0  0  0  0  0  0  0  0
    4.5603   -2.7140    0.0000 H   0  0  0  0  0  0  0  0  0  0  0  0
    2.8576   -1.3146    0.0000 C   0  0  0  0  0  0  0  0  0  0  0  0
    3.4048   -2.8182    0.0000 H   0  0  0  0  0  0  0  0  0  0  0  0
    2.3883   -2.8443    0.0000 H   0  0  0  0  0  0  0  0  0  0  0  0
    1.3059   -0.9244    0.0000 C   0  0  0  0  0  0  0  0  0  0  0  0
    1.2730   -2.5241    0.0000 H   0  0  0  0  0  0  0  0  0  0  0  0
    0.1126   -1.9902    0.0000 H   0  0  0  0  0  0  0  0  0  0  0  0
   -0.0001    0.0000    0.0000 C   0  0  0  0  0  0  0  0  0  0  0  0
   -0.8562   -1.3517    0.0000 H   0  0  0  0  0  0  0  0  0  0  0  0
   -1.4978   -0.5627    0.0000 H   0  0  0  0  0  0  0  0  0  0  0  0
   -0.8838    1.3337    0.0000 C   0  0  0  0  0  0  0  0  0  0  0  0
   -2.1705    0.3827    0.0000 H   0  0  0  0  0  0  0  0  0  0  0  0
   -2.4837    1.3502    0.0000 H   0  0  0  0  0  0  0  0  0  0  0  0
   -1.2261    2.8967    0.0000 C   0  0  0  0  0  0  0  0  0  0  0  0
   -2.7694    2.4746    0.0000 H   0  0  0  0  0  0  0  0  0  0  0  0
   -2.7120    3.4900    0.0000 H   0  0  0  0  0  0  0  0  0  0  0  0
   -0.9806    4.4779    0.0000 C   0  0  0  0  0  0  0  0  0  0  0  0
   -2.5722    4.6418    0.0000 H   0  0  0  0  0  0  0  0  0  0  0  0
   -1.9449    5.7546    0.0000 H   0  0  0  0  0  0  0  0  0  0  0  0
  1  2  2  0  0  0  0
  2  3  1  0  0  0  0
  3  4  1  0  0  0  0
  3  5  1  0  0  0  0
  3  6  1  0  0  0  0
  6  7  1  0  0  0  0
  6  8  1  0  0  0  0
  6  9  1  0  0  0  0
  9 10  1  0  0  0  0
  9 11  1  0  0  0  0
  9 12  1  0  0  0  0
 12 13  1  0  0  0  0
 12 14  1  0  0  0  0
 12 15  1  0  0  0  0
 15 16  1  0  0  0  0
 15 17  1  0  0  0  0
 15 18  1  0  0  0  0
 18 19  1  0  0  0  0
 18 20  1  0  0  0  0
 18 21  1  0  0  0  0
 21 22  1  0  0  0  0
 21 23  1  0  0  0  0
 21 24  1  0  0  0  0
 24 25  1  0  0  0  0
 24 26  2  0  0  0  0
 26 27  1  0  0  0  0
 26 28  1  0  0  0  0
 28 29  1  0  0  0  0
 28 30  1  0  0  0  0
 28 31  1  0  0  0  0
 31 32  1  0  0  0  0
 31 33  1  0  0  0  0
 31 34  1  0  0  0  0
 34 35  1  0  0  0  0
 34 36  1  0  0  0  0
 34 37  1  0  0  0  0
 37 38  1  0  0  0  0
 37 39  1  0  0  0  0
 37 40  1  0  0  0  0
 40 41  1  0  0  0  0
 40 42  1  0  0  0  0
 40 43  1  0  0  0  0
 43 44  1  0  0  0  0
 43 45  1  0  0  0  0
 43 46  1  0  0  0  0
 46  2  1  0  0  0  0
 46 47  1  0  0  0  0
 46 48  1  0  0  0  0
M  END
> <ChemID>
102163

> <source_casrn>
542-46-1

> <CAS>
74244-64-7

> <SMILES>
O=C1CCCCCCCC=CCCCCCCC1

> <NAME>
9-Cycloheptadecen-1-one, (Z)-

> <preferred_name>
9-Cycloheptadecen-1-one

> <iupac>
?

> <MPID>
21191

> <dsstox_substance_id>
DTXSID4075405

> <Canonical_QSARr>
O=C1CCCCCCCC=CCCCCCCC1

> <InChI_Code_QSARr>
InChI=1S/C17H30O/c18-17-15-13-11-9-7-5-3-1-2-4-6-8-10-12-14-16-17/h1-2H,3-16H2/b2-1-

> <InChI Key_QSARr>
ZKVZSBSZTMPBQR-UPHRSURJSA-N

> <Salt_Solvent>
?

> <BP>
343.0

$$$$
102167
  -INDIGO-08031720192D

 16 15  0  0  0  0  0  0  0  0999 V2000
    0.0000    1.6000    0.0000 C   0  0  0  0  0  0  0  0  0  0  0  0
    0.0000    3.2000    0.0000 H   0  0  0  0  0  0  0  0  0  0  0  0
    1.3856    2.4000    0.0000 H   0  0  0  0  0  0  0  0  0  0  0  0
   -1.3856    2.4000    0.0000 H   0  0  0  0  0  0  0  0  0  0  0  0
    0.0000    0.0000    0.0000 C   0  0  0  0  0  0  0  0  0  0  0  0
    0.0000   -1.6000    0.0000 H   0  0  0  0  0  0  0  0  0  0  0  0
    1.6000    0.0000    0.0000 C   0  0  0  0  0  0  0  0  0  0  0  0
    1.8089   -1.5863    0.0000 H   0  0  0  0  0  0  0  0  0  0  0  0
    2.8693   -0.9740    0.0000 H   0  0  0  0  0  0  0  0  0  0  0  0
    2.4001    1.3856    0.0000 O   0  0  0  0  0  0  0  0  0  0  0  0
    4.0001    1.3856    0.0000 N   0  0  0  0  0  0  0  0  0  0  0  0
    4.8000    2.7713    0.0000 O   0  0  0  0  0  0  0  0  0  0  0  0
   -1.6000    0.0000    0.0000 C   0  0  0  0  0  0  0  0  0  0  0  0
   -3.2000    0.0000    0.0000 H   0  0  0  0  0  0  0  0  0  0  0  0
   -2.4001   -1.3856    0.0000 H   0  0  0  0  0  0  0  0  0  0  0  0
   -2.4001    1.3856    0.0000 H   0  0  0  0  0  0  0  0  0  0  0  0
  1  2  1  0  0  0  0
  1  3  1  0  0  0  0
  1  4  1  0  0  0  0
  1  5  1  0  0  0  0
  5  6  1  0  0  0  0
  5  7  1  0  0  0  0
  7  8  1  0  0  0  0
  7  9  1  0  0  0  0
  7 10  1  0  0  0  0
 10 11  1  0  0  0  0
 11 12  2  0  0  0  0
  5 13  1  0  0  0  0
 13 14  1  0  0  0  0
 13 15  1  0  0  0  0
 13 16  1  0  0  0  0
M  END
> <ChemID>
102167

> <source_casrn>
542-56-3

> <CAS>
542-56-3

> <SMILES>
CC(C)CON=O

> <NAME>
Nitrous acid, 2-methylpropyl ester

> <preferred_name>
Isobutyl nitrite

> <iupac>
2-methylpropyl nitrite

> <MPID>
21195

> <dsstox_substance_id>
DTXSID3020750

> <Canonical_QSARr>
CC(C)CON=O

> <InChI_Code_QSARr>
InChI=1S/C4H9NO2/c1-4(2)3-7-5-6/h4H,3H2,1-2H3

> <InChI Key_QSARr>
APNSGVMLAYLYCT-UHFFFAOYSA-N

> <Salt_Solvent>
?

> <BP>
67.0

$$$$
102171
  -INDIGO-08031720192D

  9  8  0  0  0  0  0  0  0  0999 V2000
    1.3857   -0.8000    0.0000 C   0  0  0  0  0  0  0  0  0  0  0  0
    1.3857   -2.4000    0.0000 H   0  0  0  0  0  0  0  0  0  0  0  0
    2.7713    0.0000    0.0000 C   0  0  0  0  0  0  0  0  0  0  0  0
    4.1569   -0.8000    0.0000 H   0  0  0  0  0  0  0  0  0  0  0  0
    2.7713    1.6000    0.0000 Cl  0  0  0  0  0  0  0  0  0  0  0  0
    0.0000    0.0000    0.0000 C   0  0  0  0  0  0  0  0  0  0  0  0
   -1.3856    0.8000    0.0000 H   0  0  0  0  0  0  0  0  0  0  0  0
    0.0000    1.6000    0.0000 H   0  0  0  0  0  0  0  0  0  0  0  0
   -1.3856   -0.8000    0.0000 Cl  0  0  0  0  0  0  0  0  0  0  0  0
  1  2  1  0  0  0  0
  1  3  2  0  0  0  0
  3  4  1  0  0  0  0
  3  5  1  0  0  0  0
  1  6  1  0  0  0  0
  6  7  1  0  0  0  0
  6  8  1  0  0  0  0
  6  9  1  0  0  0  0
M  END
> <ChemID>
102171

> <source_casrn>
542-75-6|10061-01-5|10061-02-6

> <CAS>
542-75-6|10061-01-5|10061-02-6

> <SMILES>
ClC=CCCl

> <NAME>
1,3-DICHLOROPROPENE (isomer mix), 1,3-DICHLOROPROPENE, (Z), 1,3-DICHLOROPROPENE (TRANS)

> <preferred_name>
1,3-Dichloropropene

> <iupac>
1,3-dichloroprop-1-ene

> <MPID>
21199|24072|24073

> <dsstox_substance_id>
DTXSID1022057|DTXSID1032305|DTXSID2042480

> <Canonical_QSARr>
ClC=CCCl

> <InChI_Code_QSARr>
InChI=1S/C3H4Cl2/c4-2-1-3-5/h1-2H,3H2/b2-1-

> <InChI Key_QSARr>
UOORRWUZONOOLO-UPHRSURJSA-N

> <Salt_Solvent>
?

> <BP>
109.43333333333298

$$$$
102175
  -INDIGO-08031720192D

 10  9  0  0  0  0  0  0  0  0999 V2000
   -0.8000    1.3856    0.0000 S   0  0  0  0  0  0  0  0  0  0  0  0
   -0.0000    0.0000    0.0000 C   0  0  0  0  0  0  0  0  0  0  0  0
   -0.2089   -1.5863    0.0000 H   0  0  0  0  0  0  0  0  0  0  0  0
   -1.2694   -0.9740    0.0000 H   0  0  0  0  0  0  0  0  0  0  0  0
    1.6000    0.0000    0.0000 C   0  0  0  0  0  0  0  0  0  0  0  0
    3.2000    0.0000    0.0000 H   0  0  0  0  0  0  0  0  0  0  0  0
    2.4000   -1.3856    0.0000 H   0  0  0  0  0  0  0  0  0  0  0  0
    2.4000    1.3856    0.0000 H   0  0  0  0  0  0  0  0  0  0  0  0
   -2.4000    1.3856    0.0000 C   0  0  0  0  0  0  0  0  0  0  0  0
   -4.0000    1.3856    0.0000 N   0  0  0  0  0  0  0  0  0  0  0  0
  1  2  1  0  0  0  0
  2  3  1  0  0  0  0
  2  4  1  0  0  0  0
  2  5  1  0  0  0  0
  5  6  1  0  0  0  0
  5  7  1  0  0  0  0
  5  8  1  0  0  0  0
  1  9  1  0  0  0  0
  9 10  3  0  0  0  0
M  END
> <ChemID>
102175

> <source_casrn>
542-90-5

> <CAS>
542-90-5

> <SMILES>
CCSC#N

> <NAME>
ETHYL THIOCYANATE

> <preferred_name>
Ethyl thiocyanate

> <iupac>
thiocyanatoethane

> <MPID>
21203

> <dsstox_substance_id>
DTXSID7060259

> <Canonical_QSARr>
CCSC#N

> <InChI_Code_QSARr>
InChI=1S/C3H5NS/c1-2-5-3-4/h2H2,1H3

> <InChI Key_QSARr>
WFCLYEAZTHWNEH-UHFFFAOYSA-N

> <Salt_Solvent>
?

> <BP>
146.0

$$$$
102179
  -INDIGO-08031720192D

 17 16  0  0  0  0  0  0  0  0999 V2000
   -4.8000    0.0000    0.0000 Cl  0  0  0  0  0  0  0  0  0  0  0  0
   -3.9999    1.3856    0.0000 C   0  0  0  0  0  0  0  0  0  0  0  0
   -2.3999    1.3856    0.0000 O   0  0  0  0  0  0  0  0  0  0  0  0
   -1.6000    0.0000    0.0000 C   0  0  0  0  0  0  0  0  0  0  0  0
   -1.8089   -1.5863    0.0000 H   0  0  0  0  0  0  0  0  0  0  0  0
   -2.8693   -0.9740    0.0000 H   0  0  0  0  0  0  0  0  0  0  0  0
    0.0000    0.0000    0.0000 C   0  0  0  0  0  0  0  0  0  0  0  0
    0.0000   -1.6000    0.0000 H   0  0  0  0  0  0  0  0  0  0  0  0
    1.6000    0.0000    0.0000 C   0  0  0  0  0  0  0  0  0  0  0  0
    3.2000    0.0000    0.0000 H   0  0  0  0  0  0  0  0  0  0  0  0
    2.4001   -1.3856    0.0000 H   0  0  0  0  0  0  0  0  0  0  0  0
    2.4001    1.3856    0.0000 H   0  0  0  0  0  0  0  0  0  0  0  0
    0.0000    1.6000    0.0000 C   0  0  0  0  0  0  0  0  0  0  0  0
    0.0000    3.2000    0.0000 H   0  0  0  0  0  0  0  0  0  0  0  0
   -1.3856    2.4000    0.0000 H   0  0  0  0  0  0  0  0  0  0  0  0
    1.3856    2.4000    0.0000 H   0  0  0  0  0  0  0  0  0  0  0  0
   -4.8000    2.7713    0.0000 O   0  0  0  0  0  0  0  0  0  0  0  0
  1  2  1  0  0  0  0
  2  3  1  0  0  0  0
  3  4  1  0  0  0  0
  4  5  1  0  0  0  0
  4  6  1  0  0  0  0
  4  7  1  0  0  0  0
  7  8  1  0  0  0  0
  7  9  1  0  0  0  0
  9 10  1  0  0  0  0
  9 11  1  0  0  0  0
  9 12  1  0  0  0  0
  7 13  1  0  0  0  0
 13 14  1  0  0  0  0
 13 15  1  0  0  0  0
 13 16  1  0  0  0  0
  2 17  2  0  0  0  0
M  END
> <ChemID>
102179

> <source_casrn>
543-27-1

> <CAS>
543-27-1

> <SMILES>
CC(C)COC(=O)Cl

> <NAME>
Carbonochloridic acid, 2-methylpropyl ester

> <preferred_name>
Isobutyl chloroformate

> <iupac>
isobutyl carbonochloridate

> <MPID>
21207

> <dsstox_substance_id>
DTXSID8052194

> <Canonical_QSARr>
CC(C)COC(=O)Cl

> <InChI_Code_QSARr>
InChI=1S/C5H9ClO2/c1-4(2)3-8-5(6)7/h4H,3H2,1-2H3

> <InChI Key_QSARr>
YOETUEMZNOLGDB-UHFFFAOYSA-N

> <Salt_Solvent>
?

> <BP>
128.8

$$$$
102183
  -INDIGO-08031720192D

 17 16  0  0  0  0  0  0  0  0999 V2000
    2.7713   -0.0000    0.0000 C   0  0  0  0  0  0  0  0  0  0  0  0
    4.1569   -0.8000    0.0000 H   0  0  0  0  0  0  0  0  0  0  0  0
    4.1569    0.8000    0.0000 H   0  0  0  0  0  0  0  0  0  0  0  0
    1.3856    0.8000    0.0000 C   0  0  0  0  0  0  0  0  0  0  0  0
    0.7734    2.2782    0.0000 H   0  0  0  0  0  0  0  0  0  0  0  0
    1.9979    2.2782    0.0000 H   0  0  0  0  0  0  0  0  0  0  0  0
    0.0001   -0.0000    0.0000 C   0  0  0  0  0  0  0  0  0  0  0  0
    0.6123   -1.4782    0.0000 H   0  0  0  0  0  0  0  0  0  0  0  0
   -0.6123   -1.4782    0.0000 H   0  0  0  0  0  0  0  0  0  0  0  0
   -1.3856    0.8000    0.0000 C   0  0  0  0  0  0  0  0  0  0  0  0
   -1.9979    2.2782    0.0000 H   0  0  0  0  0  0  0  0  0  0  0  0
   -0.7734    2.2782    0.0000 H   0  0  0  0  0  0  0  0  0  0  0  0
   -2.7713   -0.0000    0.0000 C   0  0  0  0  0  0  0  0  0  0  0  0
   -4.1569   -0.8000    0.0000 H   0  0  0  0  0  0  0  0  0  0  0  0
   -4.1569    0.8000    0.0000 H   0  0  0  0  0  0  0  0  0  0  0  0
   -2.7713   -1.6000    0.0000 H   0  0  0  0  0  0  0  0  0  0  0  0
    2.7713   -1.6000    0.0000 Cl  0  0  0  0  0  0  0  0  0  0  0  0
  1  2  1  0  0  0  0
  1  3  1  0  0  0  0
  1  4  1  0  0  0  0
  4  5  1  0  0  0  0
  4  6  1  0  0  0  0
  4  7  1  0  0  0  0
  7  8  1  0  0  0  0
  7  9  1  0  0  0  0
  7 10  1  0  0  0  0
 10 11  1  0  0  0  0
 10 12  1  0  0  0  0
 10 13  1  0  0  0  0
 13 14  1  0  0  0  0
 13 15  1  0  0  0  0
 13 16  1  0  0  0  0
  1 17  1  0  0  0  0
M  END
> <ChemID>
102183

> <source_casrn>
543-59-9

> <CAS>
543-59-9

> <SMILES>
CCCCCCl

> <NAME>
1-CHLOROPENTANE

> <preferred_name>


> <iupac>


> <MPID>
21211

> <dsstox_substance_id>
DTXSID40870603

> <Canonical_QSARr>
CCCCCCl

> <InChI_Code_QSARr>
InChI=1S/C5H11Cl/c1-2-3-4-5-6/h2-5H2,1H3

> <InChI Key_QSARr>
SQCZQTSHSZLZIQ-UHFFFAOYSA-N

> <Salt_Solvent>
?

> <BP>
107.8

$$$$
102189
  -INDIGO-08031720192D

 34 33  0  0  0  0  0  0  0  0999 V2000
   -0.0001   -0.0000    0.0000 C   0  0  0  0  0  0  0  0  0  0  0  0
    0.7999   -1.3857    0.0000 H   0  0  0  0  0  0  0  0  0  0  0  0
    1.5036    0.5473    0.0000 C   0  0  0  0  0  0  0  0  0  0  0  0
    1.1573    2.1093    0.0000 H   0  0  0  0  0  0  0  0  0  0  0  0
    2.3633    1.8967    0.0000 H   0  0  0  0  0  0  0  0  0  0  0  0
    2.7292   -0.4812    0.0000 C   0  0  0  0  0  0  0  0  0  0  0  0
    3.0755   -2.0433    0.0000 H   0  0  0  0  0  0  0  0  0  0  0  0
    1.8695   -1.8307    0.0000 H   0  0  0  0  0  0  0  0  0  0  0  0
    4.2326    0.0660    0.0000 N   0  0  0  0  0  0  0  0  0  0  0  0
    4.5106    1.6417    0.0000 H   0  0  0  0  0  0  0  0  0  0  0  0
    5.4584   -0.9625    0.0000 C   0  0  0  0  0  0  0  0  0  0  0  0
    5.8047   -2.5245    0.0000 H   0  0  0  0  0  0  0  0  0  0  0  0
    4.5987   -2.3119    0.0000 H   0  0  0  0  0  0  0  0  0  0  0  0
    6.9618   -0.4152    0.0000 C   0  0  0  0  0  0  0  0  0  0  0  0
    6.6156    1.1469    0.0000 H   0  0  0  0  0  0  0  0  0  0  0  0
    7.8215    0.9342    0.0000 H   0  0  0  0  0  0  0  0  0  0  0  0
    8.1875   -1.4437    0.0000 C   0  0  0  0  0  0  0  0  0  0  0  0
    6.9618   -2.4722    0.0000 H   0  0  0  0  0  0  0  0  0  0  0  0
    9.2159   -2.6694    0.0000 C   0  0  0  0  0  0  0  0  0  0  0  0
   10.2444   -3.8950    0.0000 H   0  0  0  0  0  0  0  0  0  0  0  0
   10.7916   -2.3916    0.0000 H   0  0  0  0  0  0  0  0  0  0  0  0
    8.6687   -4.1729    0.0000 H   0  0  0  0  0  0  0  0  0  0  0  0
    9.4133   -0.4152    0.0000 C   0  0  0  0  0  0  0  0  0  0  0  0
   10.6389    0.6133    0.0000 H   0  0  0  0  0  0  0  0  0  0  0  0
    9.1353    1.1605    0.0000 H   0  0  0  0  0  0  0  0  0  0  0  0
   10.9167   -0.9625    0.0000 H   0  0  0  0  0  0  0  0  0  0  0  0
   -1.3857   -0.8000    0.0000 C   0  0  0  0  0  0  0  0  0  0  0  0
   -2.7713   -1.6000    0.0000 H   0  0  0  0  0  0  0  0  0  0  0  0
   -1.3857   -2.4000    0.0000 H   0  0  0  0  0  0  0  0  0  0  0  0
   -2.7713   -0.0000    0.0000 H   0  0  0  0  0  0  0  0  0  0  0  0
   -0.8000    1.3856    0.0000 C   0  0  0  0  0  0  0  0  0  0  0  0
   -1.6000    2.7713    0.0000 H   0  0  0  0  0  0  0  0  0  0  0  0
   -0.0001    2.7713    0.0000 H   0  0  0  0  0  0  0  0  0  0  0  0
   -2.3999    1.3856    0.0000 H   0  0  0  0  0  0  0  0  0  0  0  0
  1  2  1  0  0  0  0
  1  3  1  0  0  0  0
  3  4  1  0  0  0  0
  3  5  1  0  0  0  0
  3  6  1  0  0  0  0
  6  7  1  0  0  0  0
  6  8  1  0  0  0  0
  6  9  1  0  0  0  0
  9 10  1  0  0  0  0
  9 11  1  0  0  0  0
 11 12  1  0  0  0  0
 11 13  1  0  0  0  0
 11 14  1  0  0  0  0
 14 15  1  0  0  0  0
 14 16  1  0  0  0  0
 14 17  1  0  0  0  0
 17 18  1  0  0  0  0
 17 19  1  0  0  0  0
 19 20  1  0  0  0  0
 19 21  1  0  0  0  0
 19 22  1  0  0  0  0
 17 23  1  0  0  0  0
 23 24  1  0  0  0  0
 23 25  1  0  0  0  0
 23 26  1  0  0  0  0
  1 27  1  0  0  0  0
 27 28  1  0  0  0  0
 27 29  1  0  0  0  0
 27 30  1  0  0  0  0
  1 31  1  0  0  0  0
 31 32  1  0  0  0  0
 31 33  1  0  0  0  0
 31 34  1  0  0  0  0
M  END
> <ChemID>
102189

> <source_casrn>
544-00-3

> <CAS>
544-00-3

> <SMILES>
CC(C)CCNCCC(C)C

> <NAME>
1-Butanamine, 3-methyl-N-(3-methylbutyl)-

> <preferred_name>
1-Butanamine, 3-methyl-N-(3-methylbutyl)-

> <iupac>
3-methyl-N-(3-methylbutyl)butan-1-amine

> <MPID>
21215

> <dsstox_substance_id>
DTXSID1060263

> <Canonical_QSARr>
CC(C)CCNCCC(C)C

> <InChI_Code_QSARr>
InChI=1S/C10H23N/c1-9(2)5-7-11-8-6-10(3)4/h9-11H,5-8H2,1-4H3

> <InChI Key_QSARr>
SPVVMXMTSODFPU-UHFFFAOYSA-N

> <Salt_Solvent>
?

> <BP>
188.0

$$$$
102193
  -INDIGO-08031720192D

 19 18  0  0  0  0  0  0  0  0999 V2000
   -1.3856    0.8000    0.0000 C   0  0  0  0  0  0  0  0  0  0  0  0
   -0.7733    2.2782    0.0000 H   0  0  0  0  0  0  0  0  0  0  0  0
   -1.9979    2.2782    0.0000 H   0  0  0  0  0  0  0  0  0  0  0  0
    0.0001    0.0000    0.0000 C   0  0  0  0  0  0  0  0  0  0  0  0
   -0.6123   -1.4782    0.0000 H   0  0  0  0  0  0  0  0  0  0  0  0
    0.6122   -1.4782    0.0000 H   0  0  0  0  0  0  0  0  0  0  0  0
    1.3856    0.8000    0.0000 C   0  0  0  0  0  0  0  0  0  0  0  0
    1.3857    2.4000    0.0000 H   0  0  0  0  0  0  0  0  0  0  0  0
    2.7712    0.0000    0.0000 C   0  0  0  0  0  0  0  0  0  0  0  0
    2.7712   -1.6000    0.0000 H   0  0  0  0  0  0  0  0  0  0  0  0
    4.1569    0.8000    0.0000 C   0  0  0  0  0  0  0  0  0  0  0  0
    4.7692    2.2782    0.0000 H   0  0  0  0  0  0  0  0  0  0  0  0
    3.5446    2.2782    0.0000 H   0  0  0  0  0  0  0  0  0  0  0  0
    5.5425    0.0000    0.0000 C   0  0  0  0  0  0  0  0  0  0  0  0
    6.9282   -0.8000    0.0000 H   0  0  0  0  0  0  0  0  0  0  0  0
    6.9282    0.8000    0.0000 H   0  0  0  0  0  0  0  0  0  0  0  0
    5.5425   -1.6000    0.0000 H   0  0  0  0  0  0  0  0  0  0  0  0
   -2.7713    0.0000    0.0000 O   0  0  0  0  0  0  0  0  0  0  0  0
   -4.1569    0.8000    0.0000 H   0  0  0  0  0  0  0  0  0  0  0  0
  1  2  1  0  0  0  0
  1  3  1  0  0  0  0
  1  4  1  0  0  0  0
  4  5  1  0  0  0  0
  4  6  1  0  0  0  0
  4  7  1  0  0  0  0
  7  8  1  0  0  0  0
  7  9  2  0  0  0  0
  9 10  1  0  0  0  0
  9 11  1  0  0  0  0
 11 12  1  0  0  0  0
 11 13  1  0  0  0  0
 11 14  1  0  0  0  0
 14 15  1  0  0  0  0
 14 16  1  0  0  0  0
 14 17  1  0  0  0  0
  1 18  1  0  0  0  0
 18 19  1  0  0  0  0
M  END
> <ChemID>
102193

> <source_casrn>
544-12-7|928-96-1

> <CAS>
544-12-7|928-96-1

> <SMILES>
CCC=CCCO

> <NAME>
3-HEXENE-1-OL, 3-Hexen-1-ol, (Z)-

> <preferred_name>
3-Hexen-1-ol

> <iupac>
hex-3-en-1-ol

> <MPID>
21219|22488

> <dsstox_substance_id>
DTXSID3047217|DTXSID6022137

> <Canonical_QSARr>
CCC=CCCO

> <InChI_Code_QSARr>
InChI=1S/C6H12O/c1-2-3-4-5-6-7/h3-4,7H,2,5-6H2,1H3/b4-3+

> <InChI Key_QSARr>
UFLHIIWVXFIJGU-ONEGZZNKSA-N

> <Salt_Solvent>
?

> <BP>
156.5

$$$$
102197
  -INDIGO-08031720192D

 27 26  0  0  0  0  0  0  0  0999 V2000
    2.7714   -0.0000    0.0000 C   0  0  0  0  0  0  0  0  0  0  0  0
    4.1569   -0.8000    0.0000 H   0  0  0  0  0  0  0  0  0  0  0  0
    4.1569    0.8000    0.0000 H   0  0  0  0  0  0  0  0  0  0  0  0
    2.7714   -1.6000    0.0000 H   0  0  0  0  0  0  0  0  0  0  0  0
    1.3856    0.8000    0.0000 C   0  0  0  0  0  0  0  0  0  0  0  0
    0.7733    2.2782    0.0000 H   0  0  0  0  0  0  0  0  0  0  0  0
    1.9980    2.2782    0.0000 H   0  0  0  0  0  0  0  0  0  0  0  0
    0.0001   -0.0000    0.0000 C   0  0  0  0  0  0  0  0  0  0  0  0
    0.6122   -1.4782    0.0000 H   0  0  0  0  0  0  0  0  0  0  0  0
   -0.6122   -1.4782    0.0000 H   0  0  0  0  0  0  0  0  0  0  0  0
   -1.3856    0.8000    0.0000 C   0  0  0  0  0  0  0  0  0  0  0  0
   -1.9980    2.2782    0.0000 H   0  0  0  0  0  0  0  0  0  0  0  0
   -0.7733    2.2782    0.0000 H   0  0  0  0  0  0  0  0  0  0  0  0
   -2.7712   -0.0000    0.0000 S   0  0  0  0  0  0  0  0  0  0  0  0
   -4.1569    0.8000    0.0000 C   0  0  0  0  0  0  0  0  0  0  0  0
   -4.7692    2.2782    0.0000 H   0  0  0  0  0  0  0  0  0  0  0  0
   -3.5446    2.2782    0.0000 H   0  0  0  0  0  0  0  0  0  0  0  0
   -5.5425   -0.0000    0.0000 C   0  0  0  0  0  0  0  0  0  0  0  0
   -4.9304   -1.4782    0.0000 H   0  0  0  0  0  0  0  0  0  0  0  0
   -6.1548   -1.4782    0.0000 H   0  0  0  0  0  0  0  0  0  0  0  0
   -6.9282    0.8000    0.0000 C   0  0  0  0  0  0  0  0  0  0  0  0
   -7.5405    2.2782    0.0000 H   0  0  0  0  0  0  0  0  0  0  0  0
   -6.3159    2.2782    0.0000 H   0  0  0  0  0  0  0  0  0  0  0  0
   -8.3137   -0.0000    0.0000 C   0  0  0  0  0  0  0  0  0  0  0  0
   -9.6995   -0.8000    0.0000 H   0  0  0  0  0  0  0  0  0  0  0  0
   -9.6995    0.8000    0.0000 H   0  0  0  0  0  0  0  0  0  0  0  0
   -8.3137   -1.6000    0.0000 H   0  0  0  0  0  0  0  0  0  0  0  0
  1  2  1  0  0  0  0
  1  3  1  0  0  0  0
  1  4  1  0  0  0  0
  1  5  1  0  0  0  0
  5  6  1  0  0  0  0
  5  7  1  0  0  0  0
  5  8  1  0  0  0  0
  8  9  1  0  0  0  0
  8 10  1  0  0  0  0
  8 11  1  0  0  0  0
 11 12  1  0  0  0  0
 11 13  1  0  0  0  0
 11 14  1  0  0  0  0
 14 15  1  0  0  0  0
 15 16  1  0  0  0  0
 15 17  1  0  0  0  0
 15 18  1  0  0  0  0
 18 19  1  0  0  0  0
 18 20  1  0  0  0  0
 18 21  1  0  0  0  0
 21 22  1  0  0  0  0
 21 23  1  0  0  0  0
 21 24  1  0  0  0  0
 24 25  1  0  0  0  0
 24 26  1  0  0  0  0
 24 27  1  0  0  0  0
M  END
> <ChemID>
102197

> <source_casrn>
544-40-1

> <CAS>
544-40-1

> <SMILES>
CCCCSCCCC

> <NAME>
Di-n-butyl sulfide

> <preferred_name>
Dibutyl sulfide

> <iupac>
1-(butylsulfanyl)butane

> <MPID>
21223

> <dsstox_substance_id>
DTXSID6022058

> <Canonical_QSARr>
CCCCSCCCC

> <InChI_Code_QSARr>
InChI=1S/C8H18S/c1-3-5-7-9-8-6-4-2/h3-8H2,1-2H3

> <InChI Key_QSARr>
HTIRHQRTDBPHNZ-UHFFFAOYSA-N

> <Salt_Solvent>
?

> <BP>
185.0

$$$$
102202
  -INDIGO-08031720192D

  6  5  0  0  0  0  0  0  0  0999 V2000
    0.8000   -1.3856    0.0000 Cl  0  0  0  0  0  0  0  0  0  0  0  0
    0.0000    0.0000    0.0000 C   0  0  0  0  0  0  0  0  0  0  0  0
    1.6000   -0.0000    0.0000 Cl  0  0  0  0  0  0  0  0  0  0  0  0
    0.8000    1.3856    0.0000 Cl  0  0  0  0  0  0  0  0  0  0  0  0
   -1.6000    0.0000    0.0000 C   0  0  0  0  0  0  0  0  0  0  0  0
   -3.2000    0.0000    0.0000 N   0  0  0  0  0  0  0  0  0  0  0  0
  1  2  1  0  0  0  0
  2  3  1  0  0  0  0
  2  4  1  0  0  0  0
  2  5  1  0  0  0  0
  5  6  3  0  0  0  0
M  END
> <ChemID>
102202

> <source_casrn>
545-06-2

> <CAS>
545-06-2

> <SMILES>
N#CC(Cl)(Cl)Cl

> <NAME>
TRICHLOROACETONITRILE

> <preferred_name>
Trichloroacetonitrile

> <iupac>
trichloroacetonitrile

> <MPID>
21227

> <dsstox_substance_id>
DTXSID0021672

> <Canonical_QSARr>
N#CC(Cl)(Cl)Cl

> <InChI_Code_QSARr>
InChI=1S/C2Cl3N/c3-2(4,5)1-6

> <InChI Key_QSARr>
DRUIESSIVFYOMK-UHFFFAOYSA-N

> <Salt_Solvent>
?

> <BP>
85.7

$$$$
102206
  -INDIGO-08031720192D

 15 14  0  0  0  0  0  0  0  0999 V2000
   -1.6000    0.0000    0.0000 C   0  0  0  0  0  0  0  0  0  0  0  0
   -0.0000    0.0000    0.0000 C   0  0  0  0  0  0  0  0  0  0  0  0
   -0.0000   -1.6000    0.0000 H   0  0  0  0  0  0  0  0  0  0  0  0
    1.6001    0.0000    0.0000 C   0  0  0  0  0  0  0  0  0  0  0  0
    3.2000    0.0000    0.0000 H   0  0  0  0  0  0  0  0  0  0  0  0
    2.4000   -1.3856    0.0000 H   0  0  0  0  0  0  0  0  0  0  0  0
    2.4000    1.3856    0.0000 H   0  0  0  0  0  0  0  0  0  0  0  0
   -0.0000    1.6000    0.0000 O   0  0  0  0  0  0  0  0  0  0  0  0
   -1.3856    2.4000    0.0000 H   0  0  0  0  0  0  0  0  0  0  0  0
   -2.4000   -1.3856    0.0000 O   0  0  0  0  0  0  0  0  0  0  0  0
   -4.0001   -1.3856    0.0000 C   0  0  0  0  0  0  0  0  0  0  0  0
   -5.6000   -1.3856    0.0000 H   0  0  0  0  0  0  0  0  0  0  0  0
   -4.8000   -2.7713    0.0000 H   0  0  0  0  0  0  0  0  0  0  0  0
   -4.8000    0.0000    0.0000 H   0  0  0  0  0  0  0  0  0  0  0  0
   -2.4000    1.3856    0.0000 O   0  0  0  0  0  0  0  0  0  0  0  0
  1  2  1  0  0  0  0
  2  3  1  0  0  0  0
  2  4  1  0  0  0  0
  4  5  1  0  0  0  0
  4  6  1  0  0  0  0
  4  7  1  0  0  0  0
  2  8  1  0  0  0  0
  8  9  1  0  0  0  0
  1 10  1  0  0  0  0
 10 11  1  0  0  0  0
 11 12  1  0  0  0  0
 11 13  1  0  0  0  0
 11 14  1  0  0  0  0
  1 15  2  0  0  0  0
M  END
> <ChemID>
102206

> <source_casrn>
547-64-8

> <CAS>
547-64-8

> <SMILES>
COC(=O)C(C)O

> <NAME>
2-HYDROXYPROPANOIC ACID, METHYL ESTER

> <preferred_name>
Methyl 2-hydroxypropanoate

> <iupac>
methyl 2-hydroxypropanoate

> <MPID>
21231

> <dsstox_substance_id>
DTXSID0027197

> <Canonical_QSARr>
COC(=O)C(C)O

> <InChI_Code_QSARr>
InChI=1S/C4H8O3/c1-3(5)4(6)7-2/h3,5H,1-2H3

> <InChI Key_QSARr>
LPEKGGXMPWTOCB-UHFFFAOYSA-N

> <Salt_Solvent>
?

> <BP>
145.0

$$$$
102211
  -INDIGO-08031720192D

 18 18  0  0  0  0  0  0  0  0999 V2000
    0.0000   -0.0000    0.0000 C   0  0  0  0  0  0  0  0  0  0  0  0
    1.3856    0.8000    0.0000 C   0  0  0  0  0  0  0  0  0  0  0  0
    1.3856    2.4000    0.0000 H   0  0  0  0  0  0  0  0  0  0  0  0
    2.7713   -0.0000    0.0000 C   0  0  0  0  0  0  0  0  0  0  0  0
    4.1569    0.8000    0.0000 H   0  0  0  0  0  0  0  0  0  0  0  0
    2.7713   -1.6000    0.0000 C   0  0  0  0  0  0  0  0  0  0  0  0
    4.1569   -2.4000    0.0000 H   0  0  0  0  0  0  0  0  0  0  0  0
    1.3856   -2.4000    0.0000 C   0  0  0  0  0  0  0  0  0  0  0  0
    1.3856   -4.0000    0.0000 H   0  0  0  0  0  0  0  0  0  0  0  0
    0.0000   -1.6000    0.0000 C   0  0  0  0  0  0  0  0  0  0  0  0
   -1.3856   -2.4000    0.0000 C   0  0  0  0  0  0  0  0  0  0  0  0
   -2.7713   -3.2000    0.0000 H   0  0  0  0  0  0  0  0  0  0  0  0
   -1.3856   -4.0000    0.0000 H   0  0  0  0  0  0  0  0  0  0  0  0
   -2.7713   -1.6000    0.0000 H   0  0  0  0  0  0  0  0  0  0  0  0
   -1.3856    0.8000    0.0000 C   0  0  0  0  0  0  0  0  0  0  0  0
   -2.7713    1.6000    0.0000 H   0  0  0  0  0  0  0  0  0  0  0  0
   -1.3856    2.4000    0.0000 H   0  0  0  0  0  0  0  0  0  0  0  0
   -2.7713   -0.0000    0.0000 Cl  0  0  0  0  0  0  0  0  0  0  0  0
  1  2  1  0  0  0  0
  2  3  1  0  0  0  0
  2  4  2  0  0  0  0
  4  5  1  0  0  0  0
  4  6  1  0  0  0  0
  6  7  1  0  0  0  0
  6  8  2  0  0  0  0
  8  9  1  0  0  0  0
  8 10  1  0  0  0  0
 10  1  2  0  0  0  0
 10 11  1  0  0  0  0
 11 12  1  0  0  0  0
 11 13  1  0  0  0  0
 11 14  1  0  0  0  0
  1 15  1  0  0  0  0
 15 16  1  0  0  0  0
 15 17  1  0  0  0  0
 15 18  1  0  0  0  0
M  END
> <ChemID>
102211

> <source_casrn>
552-45-4

> <CAS>
552-45-4

> <SMILES>
Cc1ccccc1CCl

> <NAME>
Benzene, 1-(chloromethyl)-2-methyl-

> <preferred_name>
1-(Chloromethyl)-2-methylbenzene

> <iupac>
1-(chloromethyl)-2-methylbenzene

> <MPID>
21235

> <dsstox_substance_id>
DTXSID5044441

> <Canonical_QSARr>
Cc1ccccc1CCl

> <InChI_Code_QSARr>
InChI=1S/C8H9Cl/c1-7-4-2-3-5-8(7)6-9/h2-5H,6H2,1H3

> <InChI Key_QSARr>
VQRBXYBBGHOGFT-UHFFFAOYSA-N

> <Salt_Solvent>
?

> <BP>
198.0

$$$$
102215
  -INDIGO-08031720192D

 16 16  0  0  0  0  0  0  0  0999 V2000
    0.0001   -0.0000    0.0000 C   0  0  0  0  0  0  0  0  0  0  0  0
    0.0001   -1.6000    0.0000 C   0  0  0  0  0  0  0  0  0  0  0  0
    1.3856   -2.4000    0.0000 Cl  0  0  0  0  0  0  0  0  0  0  0  0
   -1.3856   -2.4000    0.0000 C   0  0  0  0  0  0  0  0  0  0  0  0
   -1.3856   -4.0000    0.0000 H   0  0  0  0  0  0  0  0  0  0  0  0
   -2.7712   -1.6000    0.0000 C   0  0  0  0  0  0  0  0  0  0  0  0
   -4.1569   -2.4000    0.0000 Cl  0  0  0  0  0  0  0  0  0  0  0  0
   -2.7712   -0.0000    0.0000 C   0  0  0  0  0  0  0  0  0  0  0  0
   -4.1569    0.8000    0.0000 H   0  0  0  0  0  0  0  0  0  0  0  0
   -1.3856    0.8000    0.0000 C   0  0  0  0  0  0  0  0  0  0  0  0
   -1.3856    2.4000    0.0000 H   0  0  0  0  0  0  0  0  0  0  0  0
    1.3856    0.8000    0.0000 O   0  0  0  0  0  0  0  0  0  0  0  0
    2.7713   -0.0000    0.0000 C   0  0  0  0  0  0  0  0  0  0  0  0
    4.1569    0.8000    0.0000 H   0  0  0  0  0  0  0  0  0  0  0  0
    4.1569   -0.8000    0.0000 H   0  0  0  0  0  0  0  0  0  0  0  0
    2.7713    1.6000    0.0000 H   0  0  0  0  0  0  0  0  0  0  0  0
  1  2  1  0  0  0  0
  2  3  1  0  0  0  0
  2  4  2  0  0  0  0
  4  5  1  0  0  0  0
  4  6  1  0  0  0  0
  6  7  1  0  0  0  0
  6  8  2  0  0  0  0
  8  9  1  0  0  0  0
  8 10  1  0  0  0  0
 10  1  2  0  0  0  0
 10 11  1  0  0  0  0
  1 12  1  0  0  0  0
 12 13  1  0  0  0  0
 13 14  1  0  0  0  0
 13 15  1  0  0  0  0
 13 16  1  0  0  0  0
M  END
> <ChemID>
102215

> <source_casrn>
553-82-2

> <CAS>
553-82-2

> <SMILES>
COc1ccc(Cl)cc1Cl

> <NAME>
Benzene, 2,4-dichloro-1-methoxy-

> <preferred_name>
Benzene, 2,4-dichloro-1-methoxy-

> <iupac>
2,4-Dichloro-1-methoxybenzene

> <MPID>
21239

> <dsstox_substance_id>
DTXSID4060286

> <Canonical_QSARr>
COc1ccc(Cl)cc1Cl

> <InChI_Code_QSARr>
InChI=1S/C7H6Cl2O/c1-10-7-3-2-5(8)4-6(7)9/h2-4H,1H3

> <InChI Key_QSARr>
CICQUFBZCADHHX-UHFFFAOYSA-N

> <Salt_Solvent>
?

> <BP>
232.0

$$$$
102219
  -INDIGO-08031720192D

 18 18  0  0  0  0  0  0  0  0999 V2000
    2.4000    1.3856    0.0000 C   0  0  0  0  0  0  0  0  0  0  0  0
    3.2000   -0.0000    0.0000 C   0  0  0  0  0  0  0  0  0  0  0  0
    4.8001   -0.0000    0.0000 C   0  0  0  0  0  0  0  0  0  0  0  0
    6.4000   -0.0000    0.0000 H   0  0  0  0  0  0  0  0  0  0  0  0
    5.6000   -1.3856    0.0000 H   0  0  0  0  0  0  0  0  0  0  0  0
    5.6000    1.3856    0.0000 H   0  0  0  0  0  0  0  0  0  0  0  0
    2.4000   -1.3856    0.0000 C   0  0  0  0  0  0  0  0  0  0  0  0
    3.2000   -2.7713    0.0000 H   0  0  0  0  0  0  0  0  0  0  0  0
    0.8000   -1.3856    0.0000 C   0  0  0  0  0  0  0  0  0  0  0  0
    0.0000   -2.7713    0.0000 H   0  0  0  0  0  0  0  0  0  0  0  0
    0.0000    0.0000    0.0000 C   0  0  0  0  0  0  0  0  0  0  0  0
   -1.6001    0.0000    0.0000 C   0  0  0  0  0  0  0  0  0  0  0  0
   -3.2000    0.0000    0.0000 H   0  0  0  0  0  0  0  0  0  0  0  0
   -2.4000   -1.3856    0.0000 H   0  0  0  0  0  0  0  0  0  0  0  0
   -2.4000    1.3856    0.0000 H   0  0  0  0  0  0  0  0  0  0  0  0
    0.8000    1.3856    0.0000 C   0  0  0  0  0  0  0  0  0  0  0  0
    0.0000    2.7713    0.0000 H   0  0  0  0  0  0  0  0  0  0  0  0
    3.2000    2.7713    0.0000 Br  0  0  0  0  0  0  0  0  0  0  0  0
  1  2  1  0  0  0  0
  2  3  1  0  0  0  0
  3  4  1  0  0  0  0
  3  5  1  0  0  0  0
  3  6  1  0  0  0  0
  2  7  2  0  0  0  0
  7  8  1  0  0  0  0
  7  9  1  0  0  0  0
  9 10  1  0  0  0  0
  9 11  2  0  0  0  0
 11 12  1  0  0  0  0
 12 13  1  0  0  0  0
 12 14  1  0  0  0  0
 12 15  1  0  0  0  0
 11 16  1  0  0  0  0
 16  1  2  0  0  0  0
 16 17  1  0  0  0  0
  1 18  1  0  0  0  0
M  END
> <ChemID>
102219

> <source_casrn>
553-94-6

> <CAS>
553-94-6

> <SMILES>
Cc1cc(Br)c(C)cc1

> <NAME>
Benzene, 2-bromo-1,4-dimethyl-

> <preferred_name>
Benzene, 2-bromo-1,4-dimethyl-

> <iupac>
2-Bromo-1,4-dimethylbenzene

> <MPID>
21243

> <dsstox_substance_id>
DTXSID9060289

> <Canonical_QSARr>
Cc1cc(Br)c(C)cc1

> <InChI_Code_QSARr>
InChI=1S/C8H9Br/c1-6-3-4-7(2)8(9)5-6/h3-5H,1-2H3

> <InChI Key_QSARr>
QXISTPDUYKNPLU-UHFFFAOYSA-N

> <Salt_Solvent>
?

> <BP>
199.0

$$$$
102225
  -INDIGO-08031720192D

 22 21  0  0  0  0  0  0  0  0999 V2000
    0.0001   -0.0000    0.0000 P   0  0  0  0  0  0  0  0  0  0  0  0
    0.8000    1.3856    0.0000 C   0  0  0  0  0  0  0  0  0  0  0  0
    0.5911    2.9720    0.0000 H   0  0  0  0  0  0  0  0  0  0  0  0
   -0.4693    2.3596    0.0000 H   0  0  0  0  0  0  0  0  0  0  0  0
    2.4000    1.3856    0.0000 C   0  0  0  0  0  0  0  0  0  0  0  0
    4.0000    1.3856    0.0000 H   0  0  0  0  0  0  0  0  0  0  0  0
    3.2001    2.7713    0.0000 H   0  0  0  0  0  0  0  0  0  0  0  0
    3.2001   -0.0000    0.0000 H   0  0  0  0  0  0  0  0  0  0  0  0
    0.8000   -1.3857    0.0000 C   0  0  0  0  0  0  0  0  0  0  0  0
    2.2782   -1.9980    0.0000 H   0  0  0  0  0  0  0  0  0  0  0  0
    2.2782   -0.7733    0.0000 H   0  0  0  0  0  0  0  0  0  0  0  0
    0.0001   -2.7713    0.0000 C   0  0  0  0  0  0  0  0  0  0  0  0
   -0.8000   -4.1569    0.0000 H   0  0  0  0  0  0  0  0  0  0  0  0
    0.8000   -4.1569    0.0000 H   0  0  0  0  0  0  0  0  0  0  0  0
   -1.5999   -2.7713    0.0000 H   0  0  0  0  0  0  0  0  0  0  0  0
   -1.5999   -0.0000    0.0000 C   0  0  0  0  0  0  0  0  0  0  0  0
   -2.8694   -0.9740    0.0000 H   0  0  0  0  0  0  0  0  0  0  0  0
   -1.8088   -1.5864    0.0000 H   0  0  0  0  0  0  0  0  0  0  0  0
   -2.4000    1.3856    0.0000 C   0  0  0  0  0  0  0  0  0  0  0  0
   -3.2001    2.7713    0.0000 H   0  0  0  0  0  0  0  0  0  0  0  0
   -4.0000    1.3856    0.0000 H   0  0  0  0  0  0  0  0  0  0  0  0
   -1.5999    2.7713    0.0000 H   0  0  0  0  0  0  0  0  0  0  0  0
  1  2  1  0  0  0  0
  2  3  1  0  0  0  0
  2  4  1  0  0  0  0
  2  5  1  0  0  0  0
  5  6  1  0  0  0  0
  5  7  1  0  0  0  0
  5  8  1  0  0  0  0
  1  9  1  0  0  0  0
  9 10  1  0  0  0  0
  9 11  1  0  0  0  0
  9 12  1  0  0  0  0
 12 13  1  0  0  0  0
 12 14  1  0  0  0  0
 12 15  1  0  0  0  0
  1 16  1  0  0  0  0
 16 17  1  0  0  0  0
 16 18  1  0  0  0  0
 16 19  1  0  0  0  0
 19 20  1  0  0  0  0
 19 21  1  0  0  0  0
 19 22  1  0  0  0  0
M  END
> <ChemID>
102225

> <source_casrn>
554-70-1

> <CAS>
554-70-1

> <SMILES>
CCP(CC)CC

> <NAME>
Phosphine, triethyl-

> <preferred_name>
Phosphine, triethyl-

> <iupac>
TRIETHYLPHOSPHANE

> <MPID>
21247

> <dsstox_substance_id>
DTXSID3060293

> <Canonical_QSARr>
CCP(CC)CC

> <InChI_Code_QSARr>
InChI=1S/C6H15P/c1-4-7(5-2)6-3/h4-6H2,1-3H3

> <InChI Key_QSARr>
RXJKFRMDXUJTEX-UHFFFAOYSA-N

> <Salt_Solvent>
?

> <BP>
129.0

$$$$
102229
  -INDIGO-08031720192D

  9  8  0  0  0  0  0  0  0  0999 V2000
    1.3857   -0.8000    0.0000 C   0  0  0  0  0  0  0  0  0  0  0  0
    1.3857   -2.4000    0.0000 H   0  0  0  0  0  0  0  0  0  0  0  0
    0.0000    0.0000    0.0000 C   0  0  0  0  0  0  0  0  0  0  0  0
   -1.3856    0.8000    0.0000 H   0  0  0  0  0  0  0  0  0  0  0  0
    0.0000    1.6000    0.0000 H   0  0  0  0  0  0  0  0  0  0  0  0
   -1.3856   -0.8000    0.0000 I   0  0  0  0  0  0  0  0  0  0  0  0
    2.7713    0.0000    0.0000 C   0  0  0  0  0  0  0  0  0  0  0  0
    4.1569   -0.8000    0.0000 H   0  0  0  0  0  0  0  0  0  0  0  0
    2.7713    1.6000    0.0000 H   0  0  0  0  0  0  0  0  0  0  0  0
  1  2  1  0  0  0  0
  1  3  1  0  0  0  0
  3  4  1  0  0  0  0
  3  5  1  0  0  0  0
  3  6  1  0  0  0  0
  1  7  2  0  0  0  0
  7  8  1  0  0  0  0
  7  9  1  0  0  0  0
M  END
> <ChemID>
102229

> <source_casrn>
556-56-9

> <CAS>
556-56-9

> <SMILES>
C=CCI

> <NAME>
1-Propene, 3-iodo-

> <preferred_name>
1-Propene, 3-iodo-

> <iupac>
3-iodoprop-1-ene

> <MPID>
21251

> <dsstox_substance_id>
DTXSID5060302

> <Canonical_QSARr>
C=CCI

> <InChI_Code_QSARr>
InChI=1S/C3H5I/c1-2-3-4/h2H,1,3H2

> <InChI Key_QSARr>
HFEHLDPGIKPNKL-UHFFFAOYSA-N

> <Salt_Solvent>
?

> <BP>
103.0

$$$$
102233
  -INDIGO-08031720192D

 80 80  0  0  0  0  0  0  0  0999 V2000
   -0.0001   -0.0000    0.0000 Si  0  0  0  0  0  0  0  0  0  0  0  0
    1.5863    0.2089    0.0000 O   0  0  0  0  0  0  0  0  0  0  0  0
    3.1317   -0.2053    0.0000 Si  0  0  0  0  0  0  0  0  0  0  0  0
    2.9229    1.3811    0.0000 C   0  0  0  0  0  0  0  0  0  0  0  0
    2.7142    2.9674    0.0000 H   0  0  0  0  0  0  0  0  0  0  0  0
    2.2217    1.8643    0.0000 H   0  0  0  0  0  0  0  0  0  0  0  0
    4.0040    2.5606    0.0000 H   0  0  0  0  0  0  0  0  0  0  0  0
    4.6354    0.3420    0.0000 C   0  0  0  0  0  0  0  0  0  0  0  0
    6.0209    1.1420    0.0000 H   0  0  0  0  0  0  0  0  0  0  0  0
    5.4747    0.1977    0.0000 H   0  0  0  0  0  0  0  0  0  0  0  0
    4.9131    1.9176    0.0000 H   0  0  0  0  0  0  0  0  0  0  0  0
    4.4011   -1.1794    0.0000 O   0  0  0  0  0  0  0  0  0  0  0  0
    5.2011   -2.5648    0.0000 Si  0  0  0  0  0  0  0  0  0  0  0  0
    6.1752   -1.2957    0.0000 C   0  0  0  0  0  0  0  0  0  0  0  0
    6.0209   -0.4581    0.0000 H   0  0  0  0  0  0  0  0  0  0  0  0
    7.1492   -0.0263    0.0000 H   0  0  0  0  0  0  0  0  0  0  0  0
    7.7737   -1.2257    0.0000 H   0  0  0  0  0  0  0  0  0  0  0  0
    6.6513   -3.2412    0.0000 C   0  0  0  0  0  0  0  0  0  0  0  0
    8.1967   -3.6552    0.0000 H   0  0  0  0  0  0  0  0  0  0  0  0
    7.9618   -2.3234    0.0000 H   0  0  0  0  0  0  0  0  0  0  0  0
    7.1427   -3.9365    0.0000 H   0  0  0  0  0  0  0  0  0  0  0  0
    5.4100   -4.1512    0.0000 O   0  0  0  0  0  0  0  0  0  0  0  0
    4.9958   -5.6967    0.0000 Si  0  0  0  0  0  0  0  0  0  0  0  0
    6.5822   -5.4878    0.0000 C   0  0  0  0  0  0  0  0  0  0  0  0
    7.7618   -6.5689    0.0000 H   0  0  0  0  0  0  0  0  0  0  0  0
    8.1686   -5.2791    0.0000 H   0  0  0  0  0  0  0  0  0  0  0  0
    7.0655   -4.7867    0.0000 H   0  0  0  0  0  0  0  0  0  0  0  0
    5.5431   -7.2003    0.0000 C   0  0  0  0  0  0  0  0  0  0  0  0
    6.3431   -8.5858    0.0000 H   0  0  0  0  0  0  0  0  0  0  0  0
    7.1188   -7.4781    0.0000 H   0  0  0  0  0  0  0  0  0  0  0  0
    5.3989   -8.0396    0.0000 H   0  0  0  0  0  0  0  0  0  0  0  0
    4.0218   -6.9661    0.0000 O   0  0  0  0  0  0  0  0  0  0  0  0
    2.6363   -7.7661    0.0000 Si  0  0  0  0  0  0  0  0  0  0  0  0
    3.9055   -8.7401    0.0000 C   0  0  0  0  0  0  0  0  0  0  0  0
    3.9754  -10.3387    0.0000 H   0  0  0  0  0  0  0  0  0  0  0  0
    5.1749   -9.7142    0.0000 H   0  0  0  0  0  0  0  0  0  0  0  0
    4.7431   -8.5858    0.0000 H   0  0  0  0  0  0  0  0  0  0  0  0
    1.9600   -9.2162    0.0000 C   0  0  0  0  0  0  0  0  0  0  0  0
    1.5460  -10.7617    0.0000 H   0  0  0  0  0  0  0  0  0  0  0  0
    2.8777  -10.5268    0.0000 H   0  0  0  0  0  0  0  0  0  0  0  0
    1.2647   -9.7076    0.0000 H   0  0  0  0  0  0  0  0  0  0  0  0
    1.0499   -7.9749    0.0000 O   0  0  0  0  0  0  0  0  0  0  0  0
   -0.4955   -7.5608    0.0000 Si  0  0  0  0  0  0  0  0  0  0  0  0
   -0.2866   -9.1472    0.0000 C   0  0  0  0  0  0  0  0  0  0  0  0
    0.4145   -9.6304    0.0000 H   0  0  0  0  0  0  0  0  0  0  0  0
   -0.0780  -10.7335    0.0000 H   0  0  0  0  0  0  0  0  0  0  0  0
   -1.3677  -10.3267    0.0000 H   0  0  0  0  0  0  0  0  0  0  0  0
   -1.9992   -8.1080    0.0000 C   0  0  0  0  0  0  0  0  0  0  0  0
   -3.3847   -8.9081    0.0000 H   0  0  0  0  0  0  0  0  0  0  0  0
   -2.2769   -9.6837    0.0000 H   0  0  0  0  0  0  0  0  0  0  0  0
   -2.8384   -7.9638    0.0000 H   0  0  0  0  0  0  0  0  0  0  0  0
   -1.7649   -6.5867    0.0000 O   0  0  0  0  0  0  0  0  0  0  0  0
   -2.5649   -5.2013    0.0000 Si  0  0  0  0  0  0  0  0  0  0  0  0
   -3.5390   -6.4704    0.0000 C   0  0  0  0  0  0  0  0  0  0  0  0
   -5.1375   -6.5403    0.0000 H   0  0  0  0  0  0  0  0  0  0  0  0
   -4.5130   -7.7398    0.0000 H   0  0  0  0  0  0  0  0  0  0  0  0
   -3.3847   -7.3080    0.0000 H   0  0  0  0  0  0  0  0  0  0  0  0
   -4.0151   -4.5249    0.0000 C   0  0  0  0  0  0  0  0  0  0  0  0
   -5.5605   -4.1109    0.0000 H   0  0  0  0  0  0  0  0  0  0  0  0
   -5.3256   -5.4427    0.0000 H   0  0  0  0  0  0  0  0  0  0  0  0
   -4.5065   -3.8296    0.0000 H   0  0  0  0  0  0  0  0  0  0  0  0
   -2.7738   -3.6149    0.0000 O   0  0  0  0  0  0  0  0  0  0  0  0
   -2.3596   -2.0694    0.0000 Si  0  0  0  0  0  0  0  0  0  0  0  0
   -3.9460   -2.2783    0.0000 C   0  0  0  0  0  0  0  0  0  0  0  0
   -4.4292   -2.9794    0.0000 H   0  0  0  0  0  0  0  0  0  0  0  0
   -5.5324   -2.4870    0.0000 H   0  0  0  0  0  0  0  0  0  0  0  0
   -5.1255   -1.1972    0.0000 H   0  0  0  0  0  0  0  0  0  0  0  0
   -2.9069   -0.5658    0.0000 C   0  0  0  0  0  0  0  0  0  0  0  0
   -3.7069    0.8197    0.0000 H   0  0  0  0  0  0  0  0  0  0  0  0
   -4.4826   -0.2880    0.0000 H   0  0  0  0  0  0  0  0  0  0  0  0
   -2.7627    0.2735    0.0000 H   0  0  0  0  0  0  0  0  0  0  0  0
   -1.3856   -0.8000    0.0000 O   0  0  0  0  0  0  0  0  0  0  0  0
   -1.2693    0.9740    0.0000 C   0  0  0  0  0  0  0  0  0  0  0  0
   -1.3392    2.5726    0.0000 H   0  0  0  0  0  0  0  0  0  0  0  0
   -2.5387    1.9481    0.0000 H   0  0  0  0  0  0  0  0  0  0  0  0
   -2.1069    0.8197    0.0000 H   0  0  0  0  0  0  0  0  0  0  0  0
    0.6763    1.4501    0.0000 C   0  0  0  0  0  0  0  0  0  0  0  0
    1.0902    2.9956    0.0000 H   0  0  0  0  0  0  0  0  0  0  0  0
   -0.2415    2.7607    0.0000 H   0  0  0  0  0  0  0  0  0  0  0  0
    1.3715    1.9416    0.0000 H   0  0  0  0  0  0  0  0  0  0  0  0
  1  2  1  0  0  0  0
  2  3  1  0  0  0  0
  3  4  1  0  0  0  0
  4  5  1  0  0  0  0
  4  6  1  0  0  0  0
  4  7  1  0  0  0  0
  3  8  1  0  0  0  0
  8  9  1  0  0  0  0
  8 10  1  0  0  0  0
  8 11  1  0  0  0  0
  3 12  1  0  0  0  0
 12 13  1  0  0  0  0
 13 14  1  0  0  0  0
 14 15  1  0  0  0  0
 14 16  1  0  0  0  0
 14 17  1  0  0  0  0
 13 18  1  0  0  0  0
 18 19  1  0  0  0  0
 18 20  1  0  0  0  0
 18 21  1  0  0  0  0
 13 22  1  0  0  0  0
 22 23  1  0  0  0  0
 23 24  1  0  0  0  0
 24 25  1  0  0  0  0
 24 26  1  0  0  0  0
 24 27  1  0  0  0  0
 23 28  1  0  0  0  0
 28 29  1  0  0  0  0
 28 30  1  0  0  0  0
 28 31  1  0  0  0  0
 23 32  1  0  0  0  0
 32 33  1  0  0  0  0
 33 34  1  0  0  0  0
 34 35  1  0  0  0  0
 34 36  1  0  0  0  0
 34 37  1  0  0  0  0
 33 38  1  0  0  0  0
 38 39  1  0  0  0  0
 38 40  1  0  0  0  0
 38 41  1  0  0  0  0
 33 42  1  0  0  0  0
 42 43  1  0  0  0  0
 43 44  1  0  0  0  0
 44 45  1  0  0  0  0
 44 46  1  0  0  0  0
 44 47  1  0  0  0  0
 43 48  1  0  0  0  0
 48 49  1  0  0  0  0
 48 50  1  0  0  0  0
 48 51  1  0  0  0  0
 43 52  1  0  0  0  0
 52 53  1  0  0  0  0
 53 54  1  0  0  0  0
 54 55  1  0  0  0  0
 54 56  1  0  0  0  0
 54 57  1  0  0  0  0
 53 58  1  0  0  0  0
 58 59  1  0  0  0  0
 58 60  1  0  0  0  0
 58 61  1  0  0  0  0
 53 62  1  0  0  0  0
 62 63  1  0  0  0  0
 63 64  1  0  0  0  0
 64 65  1  0  0  0  0
 64 66  1  0  0  0  0
 64 67  1  0  0  0  0
 63 68  1  0  0  0  0
 68 69  1  0  0  0  0
 68 70  1  0  0  0  0
 68 71  1  0  0  0  0
 63 72  1  0  0  0  0
 72  1  1  0  0  0  0
  1 73  1  0  0  0  0
 73 74  1  0  0  0  0
 73 75  1  0  0  0  0
 73 76  1  0  0  0  0
  1 77  1  0  0  0  0
 77 78  1  0  0  0  0
 77 79  1  0  0  0  0
 77 80  1  0  0  0  0
M  END
> <ChemID>
102233

> <source_casrn>
556-68-3

> <CAS>
556-68-3

> <SMILES>
C[Si]1(C)O[Si](C)(C)O[Si](C)(C)O[Si](C)(C)O[Si](C)(C)O[Si](C)(C)O[Si](C)(C)O[Si](C)(C)O1

> <NAME>
HEXADECAMETHYLCYCLOOCTASILOXANE

> <preferred_name>
Cyclooctasiloxane, hexadecamethyl-

> <iupac>
2,2,4,4,6,6,8,8,10,10,12,12,14,14,16,16-hexadecamethyl-1,3,5,7,9,11,13,15-octaoxa-2,4,6,8,10,12,14,16-octasilacyclohexadecane

> <MPID>
21255

> <dsstox_substance_id>
DTXSID0060305

> <Canonical_QSARr>
C[Si]1(C)O[Si](C)(C)O[Si](C)(C)O[Si](C)(C)O[Si](C)(C)O[Si](C)(C)O[Si](C)(C)O[Si](C)(C)O1

> <InChI_Code_QSARr>
InChI=1S/C16H48O8Si8/c1-25(2)17-26(3,4)19-28(7,8)21-30(11,12)23-32(15,16)24-31(13,14)22-29(9,10)20-27(5,6)18-25/h1-16H3

> <InChI Key_QSARr>
XKJMJYZFAWYREL-UHFFFAOYSA-N

> <Salt_Solvent>
?

> <BP>
290.0

$$$$
102237
  -INDIGO-08031720192D

 15 14  0  0  0  0  0  0  0  0999 V2000
   -1.3857    0.8000    0.0000 C   0  0  0  0  0  0  0  0  0  0  0  0
   -0.7733    2.2782    0.0000 H   0  0  0  0  0  0  0  0  0  0  0  0
   -1.9979    2.2782    0.0000 H   0  0  0  0  0  0  0  0  0  0  0  0
    0.0000    0.0000    0.0000 C   0  0  0  0  0  0  0  0  0  0  0  0
   -0.6122   -1.4782    0.0000 H   0  0  0  0  0  0  0  0  0  0  0  0
    0.6122   -1.4782    0.0000 H   0  0  0  0  0  0  0  0  0  0  0  0
    1.3856    0.8000    0.0000 C   0  0  0  0  0  0  0  0  0  0  0  0
    2.7713    1.6000    0.0000 H   0  0  0  0  0  0  0  0  0  0  0  0
    2.7713    0.0000    0.0000 H   0  0  0  0  0  0  0  0  0  0  0  0
    1.3856    2.4000    0.0000 H   0  0  0  0  0  0  0  0  0  0  0  0
   -2.7713    0.0000    0.0000 O   0  0  0  0  0  0  0  0  0  0  0  0
   -4.1569    0.8000    0.0000 C   0  0  0  0  0  0  0  0  0  0  0  0
   -5.5426    1.6000    0.0000 H   0  0  0  0  0  0  0  0  0  0  0  0
   -5.5426    0.0000    0.0000 H   0  0  0  0  0  0  0  0  0  0  0  0
   -4.1569    2.4000    0.0000 H   0  0  0  0  0  0  0  0  0  0  0  0
  1  2  1  0  0  0  0
  1  3  1  0  0  0  0
  1  4  1  0  0  0  0
  4  5  1  0  0  0  0
  4  6  1  0  0  0  0
  4  7  1  0  0  0  0
  7  8  1  0  0  0  0
  7  9  1  0  0  0  0
  7 10  1  0  0  0  0
  1 11  1  0  0  0  0
 11 12  1  0  0  0  0
 12 13  1  0  0  0  0
 12 14  1  0  0  0  0
 12 15  1  0  0  0  0
M  END
> <ChemID>
102237

> <source_casrn>
557-17-5

> <CAS>
557-17-5

> <SMILES>
CCCOC

> <NAME>
METHYL PROPYL ETHER

> <preferred_name>
Propane, 1-methoxy-

> <iupac>
1-Methoxypropane

> <MPID>
21259

> <dsstox_substance_id>
DTXSID0074558

> <Canonical_QSARr>
CCCOC

> <InChI_Code_QSARr>
InChI=1S/C4H10O/c1-3-4-5-2/h3-4H2,1-2H3

> <InChI Key_QSARr>
VNKYTQGIUYNRMY-UHFFFAOYSA-N

> <Salt_Solvent>
?

> <BP>
39.1

$$$$
102243
  -INDIGO-08031720192D

  5  4  0  0  0  0  0  0  0  0999 V2000
   -0.8000   -1.3856    0.0000 I   0  0  0  0  0  0  0  0  0  0  0  0
    0.0000    0.0000    0.0000 C   0  0  0  0  0  0  0  0  0  0  0  0
    0.8000    1.3856    0.0000 H   0  0  0  0  0  0  0  0  0  0  0  0
   -1.3856    0.8000    0.0000 H   0  0  0  0  0  0  0  0  0  0  0  0
    1.3856   -0.8000    0.0000 Br  0  0  0  0  0  0  0  0  0  0  0  0
  1  2  1  0  0  0  0
  2  3  1  0  0  0  0
  2  4  1  0  0  0  0
  2  5  1  0  0  0  0
M  END
> <ChemID>
102243

> <source_casrn>
557-68-6

> <CAS>
557-68-6

> <SMILES>
BrCI

> <NAME>
bromoiodomethane

> <preferred_name>
Methane, bromoiodo-

> <iupac>


> <MPID>
21263

> <dsstox_substance_id>
DTXSID50204233

> <Canonical_QSARr>
BrCI

> <InChI_Code_QSARr>
InChI=1S/CH2BrI/c2-1-3/h1H2

> <InChI Key_QSARr>
TUDWMIUPYRKEFN-UHFFFAOYSA-N

> <Salt_Solvent>
?

> <BP>
139.5

$$$$
102247
  -INDIGO-08031720192D

  9  8  0  0  0  0  0  0  0  0999 V2000
    2.7713    0.0000    0.0000 C   0  0  0  0  0  0  0  0  0  0  0  0
    4.1569   -0.8000    0.0000 H   0  0  0  0  0  0  0  0  0  0  0  0
    2.7713    1.6000    0.0000 H   0  0  0  0  0  0  0  0  0  0  0  0
    1.3857   -0.8000    0.0000 C   0  0  0  0  0  0  0  0  0  0  0  0
    0.0000    0.0000    0.0000 C   0  0  0  0  0  0  0  0  0  0  0  0
   -1.3856    0.8000    0.0000 H   0  0  0  0  0  0  0  0  0  0  0  0
    0.0000    1.6000    0.0000 H   0  0  0  0  0  0  0  0  0  0  0  0
   -1.3856   -0.8000    0.0000 H   0  0  0  0  0  0  0  0  0  0  0  0
    1.3857   -2.4000    0.0000 Cl  0  0  0  0  0  0  0  0  0  0  0  0
  1  2  1  0  0  0  0
  1  3  1  0  0  0  0
  1  4  2  0  0  0  0
  4  5  1  0  0  0  0
  5  6  1  0  0  0  0
  5  7  1  0  0  0  0
  5  8  1  0  0  0  0
  4  9  1  0  0  0  0
M  END
> <ChemID>
102247

> <source_casrn>
557-98-2

> <CAS>
557-98-2

> <SMILES>
CC(=C)Cl

> <NAME>
2-CHLOROPROPENE

> <preferred_name>
1-Propene, 2-chloro-

> <iupac>
2-chloroprop-1-ene

> <MPID>
21267

> <dsstox_substance_id>
DTXSID4040262

> <Canonical_QSARr>
CC(=C)Cl

> <InChI_Code_QSARr>
InChI=1S/C3H5Cl/c1-3(2)4/h1H2,2H3

> <InChI Key_QSARr>
PNLQPWWBHXMFCA-UHFFFAOYSA-N

> <Salt_Solvent>
?

> <BP>
22.6

$$$$
102251
  -INDIGO-08031720192D

  8  7  0  0  0  0  0  0  0  0999 V2000
    0.0000    0.0000    0.0000 S   0  0  0  0  0  0  0  0  0  0  0  0
    1.6000   -0.0000    0.0000 O   0  0  0  0  0  0  0  0  0  0  0  0
    0.0000   -1.6000    0.0000 O   0  0  0  0  0  0  0  0  0  0  0  0
   -1.6000    0.0000    0.0000 C   0  0  0  0  0  0  0  0  0  0  0  0
   -3.2000    0.0000    0.0000 H   0  0  0  0  0  0  0  0  0  0  0  0
   -2.4000   -1.3856    0.0000 H   0  0  0  0  0  0  0  0  0  0  0  0
   -2.4000    1.3856    0.0000 H   0  0  0  0  0  0  0  0  0  0  0  0
    0.0000    1.6000    0.0000 F   0  0  0  0  0  0  0  0  0  0  0  0
  1  2  2  0  0  0  0
  1  3  2  0  0  0  0
  1  4  1  0  0  0  0
  4  5  1  0  0  0  0
  4  6  1  0  0  0  0
  4  7  1  0  0  0  0
  1  8  1  0  0  0  0
M  END
> <ChemID>
102251

> <source_casrn>
558-25-8

> <CAS>
558-25-8

> <SMILES>
CS(=O)(=O)F

> <NAME>
FLUOROMETHYL SULFONE

> <preferred_name>
Methanesulfonyl fluoride

> <iupac>
METHANESULFONYL FLUORIDE

> <MPID>
21271

> <dsstox_substance_id>
DTXSID8060329

> <Canonical_QSARr>
CS(=O)(=O)F

> <InChI_Code_QSARr>
InChI=1S/CH3FO2S/c1-5(2,3)4/h1H3

> <InChI Key_QSARr>
KNWQLFOXPQZGPX-UHFFFAOYSA-N

> <Salt_Solvent>
?

> <BP>
123.5

$$$$
102255
  -INDIGO-08031720192D

 16 15  0  0  0  0  0  0  0  0999 V2000
    0.8000   -1.3857    0.0000 O   0  0  0  0  0  0  0  0  0  0  0  0
    2.4000   -1.3857    0.0000 H   0  0  0  0  0  0  0  0  0  0  0  0
    0.0000    0.0000    0.0000 C   0  0  0  0  0  0  0  0  0  0  0  0
   -1.3856   -0.8000    0.0000 C   0  0  0  0  0  0  0  0  0  0  0  0
   -0.7733   -2.2782    0.0000 H   0  0  0  0  0  0  0  0  0  0  0  0
   -1.9980   -2.2782    0.0000 H   0  0  0  0  0  0  0  0  0  0  0  0
   -2.7713    0.0000    0.0000 O   0  0  0  0  0  0  0  0  0  0  0  0
   -4.1569   -0.8000    0.0000 H   0  0  0  0  0  0  0  0  0  0  0  0
    1.3856    0.8000    0.0000 C   0  0  0  0  0  0  0  0  0  0  0  0
    2.7713    1.6000    0.0000 H   0  0  0  0  0  0  0  0  0  0  0  0
    2.7713    0.0000    0.0000 H   0  0  0  0  0  0  0  0  0  0  0  0
    1.3856    2.4000    0.0000 H   0  0  0  0  0  0  0  0  0  0  0  0
   -0.8000    1.3856    0.0000 C   0  0  0  0  0  0  0  0  0  0  0  0
   -1.6000    2.7713    0.0000 H   0  0  0  0  0  0  0  0  0  0  0  0
   -2.4000    1.3856    0.0000 H   0  0  0  0  0  0  0  0  0  0  0  0
    0.0000    2.7713    0.0000 H   0  0  0  0  0  0  0  0  0  0  0  0
  1  2  1  0  0  0  0
  1  3  1  0  0  0  0
  3  4  1  0  0  0  0
  4  5  1  0  0  0  0
  4  6  1  0  0  0  0
  4  7  1  0  0  0  0
  7  8  1  0  0  0  0
  3  9  1  0  0  0  0
  9 10  1  0  0  0  0
  9 11  1  0  0  0  0
  9 12  1  0  0  0  0
  3 13  1  0  0  0  0
 13 14  1  0  0  0  0
 13 15  1  0  0  0  0
 13 16  1  0  0  0  0
M  END
> <ChemID>
102255

> <source_casrn>
558-43-0

> <CAS>
558-43-0

> <SMILES>
CC(C)(O)CO

> <NAME>
2-Methyl-propane-1,2-diol

> <preferred_name>
2-Methylpropane-1,2-diol

> <iupac>
2-Methylpropane-1,2-diol

> <MPID>
21275

> <dsstox_substance_id>
DTXSID80204382

> <Canonical_QSARr>
CC(C)(O)CO

> <InChI_Code_QSARr>
InChI=1S/C4H10O2/c1-4(2,6)3-5/h5-6H,3H2,1-2H3

> <InChI Key_QSARr>
BTVWZWFKMIUSGS-UHFFFAOYSA-N

> <Salt_Solvent>
?

> <BP>
176.0

$$$$
102259
  -INDIGO-08031720192D

 24 23  0  0  0  0  0  0  0  0999 V2000
    0.0000    0.0000    0.0000 C   0  0  0  0  0  0  0  0  0  0  0  0
    1.6000    0.0000    0.0000 C   0  0  0  0  0  0  0  0  0  0  0  0
    2.8693    0.9740    0.0000 H   0  0  0  0  0  0  0  0  0  0  0  0
    1.8088    1.5863    0.0000 H   0  0  0  0  0  0  0  0  0  0  0  0
    2.4000   -1.3856    0.0000 C   0  0  0  0  0  0  0  0  0  0  0  0
    4.0000   -1.3856    0.0000 H   0  0  0  0  0  0  0  0  0  0  0  0
    3.2001   -2.7713    0.0000 H   0  0  0  0  0  0  0  0  0  0  0  0
    3.2001    0.0000    0.0000 H   0  0  0  0  0  0  0  0  0  0  0  0
   -1.6000   -0.0000    0.0000 C   0  0  0  0  0  0  0  0  0  0  0  0
   -2.4000   -1.3856    0.0000 C   0  0  0  0  0  0  0  0  0  0  0  0
   -4.0000   -1.3856    0.0000 H   0  0  0  0  0  0  0  0  0  0  0  0
   -3.2000   -2.7713    0.0000 H   0  0  0  0  0  0  0  0  0  0  0  0
   -3.2000   -0.0000    0.0000 H   0  0  0  0  0  0  0  0  0  0  0  0
   -2.6284    1.2257    0.0000 C   0  0  0  0  0  0  0  0  0  0  0  0
   -4.2042    0.9478    0.0000 H   0  0  0  0  0  0  0  0  0  0  0  0
   -2.3506    2.8014    0.0000 H   0  0  0  0  0  0  0  0  0  0  0  0
    0.0000    1.6000    0.0000 C   0  0  0  0  0  0  0  0  0  0  0  0
    0.0000    3.2000    0.0000 H   0  0  0  0  0  0  0  0  0  0  0  0
   -1.3857    2.4000    0.0000 H   0  0  0  0  0  0  0  0  0  0  0  0
    1.2257    2.6285    0.0000 H   0  0  0  0  0  0  0  0  0  0  0  0
    0.0000   -1.6000    0.0000 C   0  0  0  0  0  0  0  0  0  0  0  0
    0.0000   -3.2000    0.0000 H   0  0  0  0  0  0  0  0  0  0  0  0
    1.3856   -2.4000    0.0000 H   0  0  0  0  0  0  0  0  0  0  0  0
   -1.3857   -2.4000    0.0000 H   0  0  0  0  0  0  0  0  0  0  0  0
  1  2  1  0  0  0  0
  2  3  1  0  0  0  0
  2  4  1  0  0  0  0
  2  5  1  0  0  0  0
  5  6  1  0  0  0  0
  5  7  1  0  0  0  0
  5  8  1  0  0  0  0
  1  9  1  0  0  0  0
  9 10  1  0  0  0  0
 10 11  1  0  0  0  0
 10 12  1  0  0  0  0
 10 13  1  0  0  0  0
  9 14  2  0  0  0  0
 14 15  1  0  0  0  0
 14 16  1  0  0  0  0
  1 17  1  0  0  0  0
 17 18  1  0  0  0  0
 17 19  1  0  0  0  0
 17 20  1  0  0  0  0
  1 21  1  0  0  0  0
 21 22  1  0  0  0  0
 21 23  1  0  0  0  0
 21 24  1  0  0  0  0
M  END
> <ChemID>
102259

> <source_casrn>
560-23-6

> <CAS>
560-23-6

> <SMILES>
CCC(C)(C)C(C)=C

> <NAME>
2,3,3-TRIMETHYL-1-PENTENE

> <preferred_name>
2,3,3-Trimethyl-1-pentene

> <iupac>
2,3,3-trimethylpent-1-ene

> <MPID>
21279

> <dsstox_substance_id>
DTXSID90204570

> <Canonical_QSARr>
CCC(C)(C)C(C)=C

> <InChI_Code_QSARr>
InChI=1S/C8H16/c1-6-8(4,5)7(2)3/h2,6H2,1,3-5H3

> <InChI Key_QSARr>
TUSBCMPNIOJUBX-UHFFFAOYSA-N

> <Salt_Solvent>
?

> <BP>
108.3

$$$$
102264
  -INDIGO-08031720192D

 15 14  0  0  0  0  0  0  0  0999 V2000
    0.0000    0.0000    0.0000 C   0  0  0  0  0  0  0  0  0  0  0  0
    0.8000   -1.3856    0.0000 H   0  0  0  0  0  0  0  0  0  0  0  0
   -0.8000    1.3857    0.0000 C   0  0  0  0  0  0  0  0  0  0  0  0
    0.0000    2.7713    0.0000 H   0  0  0  0  0  0  0  0  0  0  0  0
   -2.3757    1.6635    0.0000 C   0  0  0  0  0  0  0  0  0  0  0  0
   -2.9229    3.1670    0.0000 H   0  0  0  0  0  0  0  0  0  0  0  0
   -3.4042    0.4378    0.0000 H   0  0  0  0  0  0  0  0  0  0  0  0
    1.3856    0.8000    0.0000 C   0  0  0  0  0  0  0  0  0  0  0  0
    2.7713    1.6000    0.0000 H   0  0  0  0  0  0  0  0  0  0  0  0
    2.7713    0.0000    0.0000 H   0  0  0  0  0  0  0  0  0  0  0  0
    1.3856    2.4000    0.0000 H   0  0  0  0  0  0  0  0  0  0  0  0
   -1.2256   -1.0285    0.0000 C   0  0  0  0  0  0  0  0  0  0  0  0
   -2.4514   -2.0569    0.0000 H   0  0  0  0  0  0  0  0  0  0  0  0
   -0.9478   -2.6042    0.0000 H   0  0  0  0  0  0  0  0  0  0  0  0
   -2.7292   -0.4812    0.0000 H   0  0  0  0  0  0  0  0  0  0  0  0
  1  2  1  0  0  0  0
  1  3  1  0  0  0  0
  3  4  1  0  0  0  0
  3  5  2  0  0  0  0
  5  6  1  0  0  0  0
  5  7  1  0  0  0  0
  1  8  1  0  0  0  0
  8  9  1  0  0  0  0
  8 10  1  0  0  0  0
  8 11  1  0  0  0  0
  1 12  1  0  0  0  0
 12 13  1  0  0  0  0
 12 14  1  0  0  0  0
 12 15  1  0  0  0  0
M  END
> <ChemID>
102264

> <source_casrn>
563-45-1

> <CAS>
563-45-1

> <SMILES>
CC(C)C=C

> <NAME>
3-METHYL-1-BUTENE

> <preferred_name>
3-Methyl-1-butene

> <iupac>
3-Methylbut-1-ene

> <MPID>
21283

> <dsstox_substance_id>
DTXSID7060336

> <Canonical_QSARr>
CC(C)C=C

> <InChI_Code_QSARr>
InChI=1S/C5H10/c1-4-5(2)3/h4-5H,1H2,2-3H3

> <InChI Key_QSARr>
YHQXBTXEYZIYOV-UHFFFAOYSA-N

> <Salt_Solvent>
?

> <BP>
20.1

$$$$
102268
  -INDIGO-08031720192D

  9  8  0  0  0  0  0  0  0  0999 V2000
   -0.0000    0.0000    0.0000 C   0  0  0  0  0  0  0  0  0  0  0  0
    1.3856    0.8000    0.0000 H   0  0  0  0  0  0  0  0  0  0  0  0
   -1.3856   -0.8000    0.0000 C   0  0  0  0  0  0  0  0  0  0  0  0
   -1.3856   -2.4000    0.0000 H   0  0  0  0  0  0  0  0  0  0  0  0
   -2.7713    0.0000    0.0000 C   0  0  0  0  0  0  0  0  0  0  0  0
   -4.1569   -0.8000    0.0000 H   0  0  0  0  0  0  0  0  0  0  0  0
   -2.7713    1.6000    0.0000 H   0  0  0  0  0  0  0  0  0  0  0  0
   -0.0000    1.6000    0.0000 Cl  0  0  0  0  0  0  0  0  0  0  0  0
    1.3856   -0.8000    0.0000 Cl  0  0  0  0  0  0  0  0  0  0  0  0
  1  2  1  0  0  0  0
  1  3  1  0  0  0  0
  3  4  1  0  0  0  0
  3  5  2  0  0  0  0
  5  6  1  0  0  0  0
  5  7  1  0  0  0  0
  1  8  1  0  0  0  0
  1  9  1  0  0  0  0
M  END
> <ChemID>
102268

> <source_casrn>
563-57-5

> <CAS>
563-57-5

> <SMILES>
C=CC(Cl)Cl

> <NAME>
3,3-DICHLOROPROPENE

> <preferred_name>
1-Propene, 3,3-dichloro-

> <iupac>
3,3-dichloroprop-1-ene

> <MPID>
21287

> <dsstox_substance_id>
DTXSID4073910

> <Canonical_QSARr>
C=CC(Cl)Cl

> <InChI_Code_QSARr>
InChI=1S/C3H4Cl2/c1-2-3(4)5/h2-3H,1H2

> <InChI Key_QSARr>
VRTNIWBNFSHDEB-UHFFFAOYSA-N

> <Salt_Solvent>
?

> <BP>
84.4

$$$$
102272
  -INDIGO-08031720192D

 18 17  0  0  0  0  0  0  0  0999 V2000
    0.0000    0.0000    0.0000 C   0  0  0  0  0  0  0  0  0  0  0  0
    1.6000    0.0000    0.0000 C   0  0  0  0  0  0  0  0  0  0  0  0
    2.4000    1.3856    0.0000 C   0  0  0  0  0  0  0  0  0  0  0  0
    3.2000    2.7713    0.0000 H   0  0  0  0  0  0  0  0  0  0  0  0
    4.0000    1.3856    0.0000 H   0  0  0  0  0  0  0  0  0  0  0  0
    1.6000    2.7713    0.0000 H   0  0  0  0  0  0  0  0  0  0  0  0
    2.4000   -1.3856    0.0000 C   0  0  0  0  0  0  0  0  0  0  0  0
    3.2000   -2.7713    0.0000 H   0  0  0  0  0  0  0  0  0  0  0  0
    4.0000   -1.3856    0.0000 H   0  0  0  0  0  0  0  0  0  0  0  0
    1.6000   -2.7713    0.0000 H   0  0  0  0  0  0  0  0  0  0  0  0
   -0.8000    1.3856    0.0000 C   0  0  0  0  0  0  0  0  0  0  0  0
   -1.6000    2.7713    0.0000 H   0  0  0  0  0  0  0  0  0  0  0  0
   -2.4000    1.3856    0.0000 H   0  0  0  0  0  0  0  0  0  0  0  0
    0.0000    2.7713    0.0000 H   0  0  0  0  0  0  0  0  0  0  0  0
   -0.8000   -1.3856    0.0000 C   0  0  0  0  0  0  0  0  0  0  0  0
   -1.6000   -2.7713    0.0000 H   0  0  0  0  0  0  0  0  0  0  0  0
   -2.4000   -1.3856    0.0000 H   0  0  0  0  0  0  0  0  0  0  0  0
    0.0000   -2.7713    0.0000 H   0  0  0  0  0  0  0  0  0  0  0  0
  1  2  2  0  0  0  0
  2  3  1  0  0  0  0
  3  4  1  0  0  0  0
  3  5  1  0  0  0  0
  3  6  1  0  0  0  0
  2  7  1  0  0  0  0
  7  8  1  0  0  0  0
  7  9  1  0  0  0  0
  7 10  1  0  0  0  0
  1 11  1  0  0  0  0
 11 12  1  0  0  0  0
 11 13  1  0  0  0  0
 11 14  1  0  0  0  0
  1 15  1  0  0  0  0
 15 16  1  0  0  0  0
 15 17  1  0  0  0  0
 15 18  1  0  0  0  0
M  END
> <ChemID>
102272

> <source_casrn>
563-79-1

> <CAS>
563-79-1

> <SMILES>
CC(C)=C(C)C

> <NAME>
2,3-DIMETHYL-2-BUTENE

> <preferred_name>
2-Butene, 2,3-dimethyl-

> <iupac>
2,3-Dimethylbut-2-ene

> <MPID>
21291

> <dsstox_substance_id>
DTXSID2060339

> <Canonical_QSARr>
CC(C)=C(C)C

> <InChI_Code_QSARr>
InChI=1S/C6H12/c1-5(2)6(3)4/h1-4H3

> <InChI Key_QSARr>
WGLLSSPDPJPLOR-UHFFFAOYSA-N

> <Salt_Solvent>
?

> <BP>
73.3

$$$$
102277
  -INDIGO-08031720192D

 26 25  0  0  0  0  0  0  0  0999 V2000
   -0.0000    0.0000    0.0000 C   0  0  0  0  0  0  0  0  0  0  0  0
    0.8000   -1.3856    0.0000 C   0  0  0  0  0  0  0  0  0  0  0  0
    2.0257   -0.3572    0.0000 H   0  0  0  0  0  0  0  0  0  0  0  0
    2.0257   -2.4141    0.0000 C   0  0  0  0  0  0  0  0  0  0  0  0
    2.3719   -3.9762    0.0000 H   0  0  0  0  0  0  0  0  0  0  0  0
    1.4133   -3.8923    0.0000 H   0  0  0  0  0  0  0  0  0  0  0  0
    3.5292   -1.8669    0.0000 C   0  0  0  0  0  0  0  0  0  0  0  0
    5.0327   -1.3196    0.0000 H   0  0  0  0  0  0  0  0  0  0  0  0
    4.7549   -2.8953    0.0000 H   0  0  0  0  0  0  0  0  0  0  0  0
    3.8070   -0.2911    0.0000 H   0  0  0  0  0  0  0  0  0  0  0  0
   -0.4256   -2.4141    0.0000 C   0  0  0  0  0  0  0  0  0  0  0  0
   -0.1478   -3.9898    0.0000 H   0  0  0  0  0  0  0  0  0  0  0  0
   -1.6513   -3.4426    0.0000 H   0  0  0  0  0  0  0  0  0  0  0  0
    1.0779   -2.9613    0.0000 H   0  0  0  0  0  0  0  0  0  0  0  0
   -0.8000    1.3856    0.0000 C   0  0  0  0  0  0  0  0  0  0  0  0
   -1.6000    2.7713    0.0000 H   0  0  0  0  0  0  0  0  0  0  0  0
   -2.4000    1.3856    0.0000 H   0  0  0  0  0  0  0  0  0  0  0  0
   -0.0000    2.7713    0.0000 H   0  0  0  0  0  0  0  0  0  0  0  0
    1.2257    1.0285    0.0000 C   0  0  0  0  0  0  0  0  0  0  0  0
    2.4514    2.0570    0.0000 H   0  0  0  0  0  0  0  0  0  0  0  0
    0.9479    2.6042    0.0000 H   0  0  0  0  0  0  0  0  0  0  0  0
    2.7292    0.4813    0.0000 H   0  0  0  0  0  0  0  0  0  0  0  0
   -1.3857   -0.8000    0.0000 C   0  0  0  0  0  0  0  0  0  0  0  0
   -2.7713   -1.6000    0.0000 H   0  0  0  0  0  0  0  0  0  0  0  0
   -2.7713    0.0000    0.0000 H   0  0  0  0  0  0  0  0  0  0  0  0
   -1.3857   -2.4000    0.0000 H   0  0  0  0  0  0  0  0  0  0  0  0
  1  2  1  0  0  0  0
  2  3  1  0  0  0  0
  2  4  1  0  0  0  0
  4  5  1  0  0  0  0
  4  6  1  0  0  0  0
  4  7  1  0  0  0  0
  7  8  1  0  0  0  0
  7  9  1  0  0  0  0
  7 10  1  0  0  0  0
  2 11  1  0  0  0  0
 11 12  1  0  0  0  0
 11 13  1  0  0  0  0
 11 14  1  0  0  0  0
  1 15  1  0  0  0  0
 15 16  1  0  0  0  0
 15 17  1  0  0  0  0
 15 18  1  0  0  0  0
  1 19  1  0  0  0  0
 19 20  1  0  0  0  0
 19 21  1  0  0  0  0
 19 22  1  0  0  0  0
  1 23  1  0  0  0  0
 23 24  1  0  0  0  0
 23 25  1  0  0  0  0
 23 26  1  0  0  0  0
M  END
> <ChemID>
102277

> <source_casrn>
564-02-3

> <CAS>
40824-48-4

> <SMILES>
CC[C@H](C)C(C)(C)C

> <NAME>
2,2,3-TRIMETHYLPENTANE

> <preferred_name>
PUBCHEM_22810197

> <iupac>
C8H18

> <MPID>
21295

> <dsstox_substance_id>
DTXSID80628408

> <Canonical_QSARr>
CCC(C)C(C)(C)C

> <InChI_Code_QSARr>
InChI=1S/C8H18/c1-6-7(2)8(3,4)5/h7H,6H2,1-5H3

> <InChI Key_QSARr>
XTDQDBVBDLYELW-UHFFFAOYSA-N

> <Salt_Solvent>
?

> <BP>
110.0

$$$$
102282
  -INDIGO-08031720192D

 21 20  0  0  0  0  0  0  0  0999 V2000
    3.1513   -0.5556    0.0000 C   0  0  0  0  0  0  0  0  0  0  0  0
    4.7271   -0.8335    0.0000 H   0  0  0  0  0  0  0  0  0  0  0  0
    3.6987   -2.0592    0.0000 H   0  0  0  0  0  0  0  0  0  0  0  0
    4.1799    0.6700    0.0000 H   0  0  0  0  0  0  0  0  0  0  0  0
    1.5758   -0.2779    0.0000 C   0  0  0  0  0  0  0  0  0  0  0  0
    1.8536    1.2978    0.0000 H   0  0  0  0  0  0  0  0  0  0  0  0
    0.0000   -0.0000    0.0000 C   0  0  0  0  0  0  0  0  0  0  0  0
    0.0000   -1.6000    0.0000 H   0  0  0  0  0  0  0  0  0  0  0  0
   -1.5757   -0.2779    0.0000 C   0  0  0  0  0  0  0  0  0  0  0  0
   -2.9950    0.4610    0.0000 H   0  0  0  0  0  0  0  0  0  0  0  0
   -2.0568    1.2481    0.0000 H   0  0  0  0  0  0  0  0  0  0  0  0
   -2.1229   -1.7814    0.0000 C   0  0  0  0  0  0  0  0  0  0  0  0
   -2.6702   -3.2849    0.0000 H   0  0  0  0  0  0  0  0  0  0  0  0
   -3.6986   -2.0592    0.0000 H   0  0  0  0  0  0  0  0  0  0  0  0
   -1.0945   -3.0070    0.0000 H   0  0  0  0  0  0  0  0  0  0  0  0
    0.0000    1.6000    0.0000 C   0  0  0  0  0  0  0  0  0  0  0  0
    0.0000    3.2000    0.0000 H   0  0  0  0  0  0  0  0  0  0  0  0
   -1.3857    2.4000    0.0000 H   0  0  0  0  0  0  0  0  0  0  0  0
    1.3856    2.4000    0.0000 H   0  0  0  0  0  0  0  0  0  0  0  0
    1.2979   -1.8535    0.0000 O   0  0  0  0  0  0  0  0  0  0  0  0
    2.5236   -2.8820    0.0000 H   0  0  0  0  0  0  0  0  0  0  0  0
  1  2  1  0  0  0  0
  1  3  1  0  0  0  0
  1  4  1  0  0  0  0
  1  5  1  0  0  0  0
  5  6  1  0  0  0  0
  5  7  1  0  0  0  0
  7  8  1  0  0  0  0
  7  9  1  0  0  0  0
  9 10  1  0  0  0  0
  9 11  1  0  0  0  0
  9 12  1  0  0  0  0
 12 13  1  0  0  0  0
 12 14  1  0  0  0  0
 12 15  1  0  0  0  0
  7 16  1  0  0  0  0
 16 17  1  0  0  0  0
 16 18  1  0  0  0  0
 16 19  1  0  0  0  0
  5 20  1  0  0  0  0
 20 21  1  0  0  0  0
M  END
> <ChemID>
102282

> <source_casrn>
565-60-6

> <CAS>
NOCAS_862204

> <SMILES>
CC(CC)C(C)O

> <NAME>
3-METHYL-2-PENTANOL

> <preferred_name>


> <iupac>


> <MPID>
21299

> <dsstox_substance_id>
DTXSID80862204

> <Canonical_QSARr>
CC(CC)C(C)O

> <InChI_Code_QSARr>
InChI=1S/C6H14O/c1-4-5(2)6(3)7/h5-7H,4H2,1-3H3

> <InChI Key_QSARr>
ZXNBBWHRUSXUFZ-UHFFFAOYSA-N

> <Salt_Solvent>
?

> <BP>
134.3

$$$$
102287
  -INDIGO-08031720192D

 19 18  0  0  0  0  0  0  0  0999 V2000
   -1.3856    0.8000    0.0000 C   0  0  0  0  0  0  0  0  0  0  0  0
    0.0000    0.0000    0.0000 C   0  0  0  0  0  0  0  0  0  0  0  0
   -0.8000   -1.3856    0.0000 H   0  0  0  0  0  0  0  0  0  0  0  0
    1.3857   -0.8000    0.0000 C   0  0  0  0  0  0  0  0  0  0  0  0
    2.7713   -1.6000    0.0000 H   0  0  0  0  0  0  0  0  0  0  0  0
    1.3857   -2.4000    0.0000 H   0  0  0  0  0  0  0  0  0  0  0  0
    2.7713    0.0000    0.0000 H   0  0  0  0  0  0  0  0  0  0  0  0
    0.8000    1.3856    0.0000 C   0  0  0  0  0  0  0  0  0  0  0  0
    1.6000    2.7713    0.0000 H   0  0  0  0  0  0  0  0  0  0  0  0
    0.0000    2.7713    0.0000 H   0  0  0  0  0  0  0  0  0  0  0  0
    2.4000    1.3856    0.0000 H   0  0  0  0  0  0  0  0  0  0  0  0
   -2.7713    0.0000    0.0000 C   0  0  0  0  0  0  0  0  0  0  0  0
   -3.3835   -1.4782    0.0000 H   0  0  0  0  0  0  0  0  0  0  0  0
   -2.1590   -1.4782    0.0000 H   0  0  0  0  0  0  0  0  0  0  0  0
   -4.1569    0.8000    0.0000 C   0  0  0  0  0  0  0  0  0  0  0  0
   -5.5426    1.6000    0.0000 H   0  0  0  0  0  0  0  0  0  0  0  0
   -5.5426    0.0000    0.0000 H   0  0  0  0  0  0  0  0  0  0  0  0
   -4.1569    2.4000    0.0000 H   0  0  0  0  0  0  0  0  0  0  0  0
   -1.3856    2.4000    0.0000 O   0  0  0  0  0  0  0  0  0  0  0  0
  1  2  1  0  0  0  0
  2  3  1  0  0  0  0
  2  4  1  0  0  0  0
  4  5  1  0  0  0  0
  4  6  1  0  0  0  0
  4  7  1  0  0  0  0
  2  8  1  0  0  0  0
  8  9  1  0  0  0  0
  8 10  1  0  0  0  0
  8 11  1  0  0  0  0
  1 12  1  0  0  0  0
 12 13  1  0  0  0  0
 12 14  1  0  0  0  0
 12 15  1  0  0  0  0
 15 16  1  0  0  0  0
 15 17  1  0  0  0  0
 15 18  1  0  0  0  0
  1 19  2  0  0  0  0
M  END
> <ChemID>
102287

> <source_casrn>
565-69-5

> <CAS>
565-69-5

> <SMILES>
CCC(=O)C(C)C

> <NAME>
2-METHYL-3-PENTANONE

> <preferred_name>
2-Methyl-3-pentanone

> <iupac>
2-Methylpentan-3-one

> <MPID>
21303

> <dsstox_substance_id>
DTXSID2073196

> <Canonical_QSARr>
CCC(=O)C(C)C

> <InChI_Code_QSARr>
InChI=1S/C6H12O/c1-4-6(7)5(2)3/h5H,4H2,1-3H3

> <InChI Key_QSARr>
HYTRYEXINDDXJK-UHFFFAOYSA-N

> <Salt_Solvent>
?

> <BP>
113.5

$$$$
102291
  -INDIGO-08031720192D

 22 21  0  0  0  0  0  0  0  0999 V2000
    0.8000    1.3856    0.0000 C   0  0  0  0  0  0  0  0  0  0  0  0
    1.6000    2.7713    0.0000 H   0  0  0  0  0  0  0  0  0  0  0  0
    2.4000    1.3856    0.0000 H   0  0  0  0  0  0  0  0  0  0  0  0
    0.0000    2.7713    0.0000 H   0  0  0  0  0  0  0  0  0  0  0  0
    0.0000    0.0000    0.0000 C   0  0  0  0  0  0  0  0  0  0  0  0
   -0.8000   -1.3856    0.0000 H   0  0  0  0  0  0  0  0  0  0  0  0
   -1.3856    0.8000    0.0000 C   0  0  0  0  0  0  0  0  0  0  0  0
   -2.7713    0.0000    0.0000 C   0  0  0  0  0  0  0  0  0  0  0  0
   -1.9713   -1.3856    0.0000 H   0  0  0  0  0  0  0  0  0  0  0  0
   -4.1569   -0.8000    0.0000 C   0  0  0  0  0  0  0  0  0  0  0  0
   -5.5426   -1.6000    0.0000 H   0  0  0  0  0  0  0  0  0  0  0  0
   -5.5426    0.0000    0.0000 H   0  0  0  0  0  0  0  0  0  0  0  0
   -4.1569   -2.4000    0.0000 H   0  0  0  0  0  0  0  0  0  0  0  0
   -3.5713    1.3856    0.0000 C   0  0  0  0  0  0  0  0  0  0  0  0
   -4.3713    2.7713    0.0000 H   0  0  0  0  0  0  0  0  0  0  0  0
   -5.1712    1.3856    0.0000 H   0  0  0  0  0  0  0  0  0  0  0  0
   -2.7713    2.7713    0.0000 H   0  0  0  0  0  0  0  0  0  0  0  0
   -1.3856    2.4000    0.0000 O   0  0  0  0  0  0  0  0  0  0  0  0
    1.3857   -0.8000    0.0000 C   0  0  0  0  0  0  0  0  0  0  0  0
    2.7713   -1.6000    0.0000 H   0  0  0  0  0  0  0  0  0  0  0  0
    2.7713    0.0000    0.0000 H   0  0  0  0  0  0  0  0  0  0  0  0
    1.3857   -2.4000    0.0000 H   0  0  0  0  0  0  0  0  0  0  0  0
  1  2  1  0  0  0  0
  1  3  1  0  0  0  0
  1  4  1  0  0  0  0
  1  5  1  0  0  0  0
  5  6  1  0  0  0  0
  5  7  1  0  0  0  0
  7  8  1  0  0  0  0
  8  9  1  0  0  0  0
  8 10  1  0  0  0  0
 10 11  1  0  0  0  0
 10 12  1  0  0  0  0
 10 13  1  0  0  0  0
  8 14  1  0  0  0  0
 14 15  1  0  0  0  0
 14 16  1  0  0  0  0
 14 17  1  0  0  0  0
  7 18  2  0  0  0  0
  5 19  1  0  0  0  0
 19 20  1  0  0  0  0
 19 21  1  0  0  0  0
 19 22  1  0  0  0  0
M  END
> <ChemID>
102291

> <source_casrn>
565-80-0

> <CAS>
565-80-0

> <SMILES>
CC(C)C(=O)C(C)C

> <NAME>
2,4-DIMETHYL-3-PENTANONE

> <preferred_name>
2,4-Dimethylpentan-3-one

> <iupac>
2,4-dimethylpentan-3-one

> <MPID>
21307

> <dsstox_substance_id>
DTXSID3038771

> <Canonical_QSARr>
CC(C)C(=O)C(C)C

> <InChI_Code_QSARr>
InChI=1S/C7H14O/c1-5(2)7(8)6(3)4/h5-6H,1-4H3

> <InChI Key_QSARr>
HXVNBWAKAOHACI-UHFFFAOYSA-N

> <Salt_Solvent>
?

> <BP>
125.4

$$$$
102295
  -INDIGO-08031720192D

 24 25  0  0  0  0  0  0  0  0999 V2000
   -0.0000    0.0000    0.0000 C   0  0  0  0  0  0  0  0  0  0  0  0
   -0.8000    1.3856    0.0000 C   0  0  0  0  0  0  0  0  0  0  0  0
   -0.0000    2.7713    0.0000 H   0  0  0  0  0  0  0  0  0  0  0  0
   -2.4000    1.3856    0.0000 C   0  0  0  0  0  0  0  0  0  0  0  0
   -3.2001    2.7713    0.0000 H   0  0  0  0  0  0  0  0  0  0  0  0
   -3.2001    0.0000    0.0000 C   0  0  0  0  0  0  0  0  0  0  0  0
   -4.8000    0.0000    0.0000 H   0  0  0  0  0  0  0  0  0  0  0  0
   -2.4000   -1.3856    0.0000 C   0  0  0  0  0  0  0  0  0  0  0  0
   -3.2001   -2.7713    0.0000 C   0  0  0  0  0  0  0  0  0  0  0  0
   -4.0000   -4.1569    0.0000 H   0  0  0  0  0  0  0  0  0  0  0  0
   -4.8000   -2.7713    0.0000 H   0  0  0  0  0  0  0  0  0  0  0  0
   -2.4000   -4.1569    0.0000 H   0  0  0  0  0  0  0  0  0  0  0  0
   -0.8000   -1.3856    0.0000 C   0  0  0  0  0  0  0  0  0  0  0  0
   -0.0000   -2.7713    0.0000 C   0  0  0  0  0  0  0  0  0  0  0  0
   -0.8000   -4.1569    0.0000 H   0  0  0  0  0  0  0  0  0  0  0  0
    1.6000   -2.7713    0.0000 C   0  0  0  0  0  0  0  0  0  0  0  0
    2.4001   -4.1569    0.0000 H   0  0  0  0  0  0  0  0  0  0  0  0
    2.4001   -1.3856    0.0000 C   0  0  0  0  0  0  0  0  0  0  0  0
    4.0000   -1.3856    0.0000 H   0  0  0  0  0  0  0  0  0  0  0  0
    1.6000    0.0000    0.0000 C   0  0  0  0  0  0  0  0  0  0  0  0
    2.4001    1.3856    0.0000 C   0  0  0  0  0  0  0  0  0  0  0  0
    3.2000    2.7713    0.0000 H   0  0  0  0  0  0  0  0  0  0  0  0
    4.0000    1.3856    0.0000 H   0  0  0  0  0  0  0  0  0  0  0  0
    1.6000    2.7713    0.0000 H   0  0  0  0  0  0  0  0  0  0  0  0
  1  2  1  0  0  0  0
  2  3  1  0  0  0  0
  2  4  2  0  0  0  0
  4  5  1  0  0  0  0
  4  6  1  0  0  0  0
  6  7  1  0  0  0  0
  6  8  2  0  0  0  0
  8  9  1  0  0  0  0
  9 10  1  0  0  0  0
  9 11  1  0  0  0  0
  9 12  1  0  0  0  0
  8 13  1  0  0  0  0
 13  1  1  0  0  0  0
 13 14  2  0  0  0  0
 14 15  1  0  0  0  0
 14 16  1  0  0  0  0
 16 17  1  0  0  0  0
 16 18  2  0  0  0  0
 18 19  1  0  0  0  0
 18 20  1  0  0  0  0
 20  1  2  0  0  0  0
 20 21  1  0  0  0  0
 21 22  1  0  0  0  0
 21 23  1  0  0  0  0
 21 24  1  0  0  0  0
M  END
> <ChemID>
102295

> <source_casrn>
571-61-9

> <CAS>
571-61-9

> <SMILES>
Cc1cccc2c1cccc2C

> <NAME>
1,5-DIMETHYLNAPHTHALENE

> <preferred_name>
1,5-Dimethylnaphthalene

> <iupac>
1,5-Dimethylnaphthalene

> <MPID>
21311

> <dsstox_substance_id>
DTXSID0060351

> <Canonical_QSARr>
Cc1cccc2c1cccc2C

> <InChI_Code_QSARr>
InChI=1S/C12H12/c1-9-5-3-8-12-10(2)6-4-7-11(9)12/h3-8H,1-2H3

> <InChI Key_QSARr>
SDDBCEWUYXVGCQ-UHFFFAOYSA-N

> <Salt_Solvent>
?

> <BP>
265.0

$$$$
102299
  -INDIGO-08031720192D

 24 25  0  0  0  0  0  0  0  0999 V2000
   -0.0001   -0.0001    0.0000 C   0  0  0  0  0  0  0  0  0  0  0  0
    1.3857    0.8000    0.0000 C   0  0  0  0  0  0  0  0  0  0  0  0
    1.3857    2.4000    0.0000 C   0  0  0  0  0  0  0  0  0  0  0  0
    1.3857    4.0000    0.0000 H   0  0  0  0  0  0  0  0  0  0  0  0
    2.7713    3.1999    0.0000 H   0  0  0  0  0  0  0  0  0  0  0  0
   -0.0001    3.1999    0.0000 H   0  0  0  0  0  0  0  0  0  0  0  0
    2.7713    0.0001    0.0000 C   0  0  0  0  0  0  0  0  0  0  0  0
    4.1569    0.8000    0.0000 H   0  0  0  0  0  0  0  0  0  0  0  0
    2.7713   -1.5999    0.0000 C   0  0  0  0  0  0  0  0  0  0  0  0
    4.1569   -2.4000    0.0000 C   0  0  0  0  0  0  0  0  0  0  0  0
    5.5426   -3.1999    0.0000 H   0  0  0  0  0  0  0  0  0  0  0  0
    4.1569   -4.0000    0.0000 H   0  0  0  0  0  0  0  0  0  0  0  0
    5.5426   -1.6001    0.0000 H   0  0  0  0  0  0  0  0  0  0  0  0
    1.3857   -2.4000    0.0000 C   0  0  0  0  0  0  0  0  0  0  0  0
    1.3857   -4.0000    0.0000 H   0  0  0  0  0  0  0  0  0  0  0  0
   -0.0001   -1.5999    0.0000 C   0  0  0  0  0  0  0  0  0  0  0  0
   -1.3857   -2.4000    0.0000 C   0  0  0  0  0  0  0  0  0  0  0  0
   -1.3857   -4.0000    0.0000 H   0  0  0  0  0  0  0  0  0  0  0  0
   -2.7713   -1.5999    0.0000 C   0  0  0  0  0  0  0  0  0  0  0  0
   -4.1569   -2.4000    0.0000 H   0  0  0  0  0  0  0  0  0  0  0  0
   -2.7713   -0.0001    0.0000 C   0  0  0  0  0  0  0  0  0  0  0  0
   -4.1569    0.8000    0.0000 H   0  0  0  0  0  0  0  0  0  0  0  0
   -1.3857    0.8000    0.0000 C   0  0  0  0  0  0  0  0  0  0  0  0
   -1.3857    2.4000    0.0000 H   0  0  0  0  0  0  0  0  0  0  0  0
  1  2  1  0  0  0  0
  2  3  1  0  0  0  0
  3  4  1  0  0  0  0
  3  5  1  0  0  0  0
  3  6  1  0  0  0  0
  2  7  2  0  0  0  0
  7  8  1  0  0  0  0
  7  9  1  0  0  0  0
  9 10  1  0  0  0  0
 10 11  1  0  0  0  0
 10 12  1  0  0  0  0
 10 13  1  0  0  0  0
  9 14  2  0  0  0  0
 14 15  1  0  0  0  0
 14 16  1  0  0  0  0
 16  1  1  0  0  0  0
 16 17  2  0  0  0  0
 17 18  1  0  0  0  0
 17 19  1  0  0  0  0
 19 20  1  0  0  0  0
 19 21  2  0  0  0  0
 21 22  1  0  0  0  0
 21 23  1  0  0  0  0
 23  1  2  0  0  0  0
 23 24  1  0  0  0  0
M  END
> <ChemID>
102299

> <source_casrn>
575-41-7

> <CAS>
575-41-7

> <SMILES>
Cc1cc2ccccc2c(C)c1

> <NAME>
1,3-DIMETHYLNAPTHALENE

> <preferred_name>
1,3-Dimethylnaphthalene

> <iupac>
1,3-Dimethylnaphthalene

> <MPID>
21315

> <dsstox_substance_id>
DTXSID9060360

> <Canonical_QSARr>
Cc1cc2ccccc2c(C)c1

> <InChI_Code_QSARr>
InChI=1S/C12H12/c1-9-7-10(2)12-6-4-3-5-11(12)8-9/h3-8H,1-2H3

> <InChI Key_QSARr>
QHJMFSMPSZREIF-UHFFFAOYSA-N

> <Salt_Solvent>
?

> <BP>
263.0

$$$$
102303
  -INDIGO-08031720192D

 13 13  0  0  0  0  0  0  0  0999 V2000
    2.4000    1.3856    0.0000 Cl  0  0  0  0  0  0  0  0  0  0  0  0
    1.6000   -0.0000    0.0000 C   0  0  0  0  0  0  0  0  0  0  0  0
    2.4000   -1.3857    0.0000 C   0  0  0  0  0  0  0  0  0  0  0  0
    4.0000   -1.3857    0.0000 Cl  0  0  0  0  0  0  0  0  0  0  0  0
    1.6000   -2.7713    0.0000 C   0  0  0  0  0  0  0  0  0  0  0  0
    2.4000   -4.1569    0.0000 H   0  0  0  0  0  0  0  0  0  0  0  0
    0.0000   -2.7713    0.0000 C   0  0  0  0  0  0  0  0  0  0  0  0
   -0.8000   -4.1569    0.0000 H   0  0  0  0  0  0  0  0  0  0  0  0
   -0.8000   -1.3856    0.0000 C   0  0  0  0  0  0  0  0  0  0  0  0
   -2.4000   -1.3856    0.0000 H   0  0  0  0  0  0  0  0  0  0  0  0
    0.0000   -0.0000    0.0000 C   0  0  0  0  0  0  0  0  0  0  0  0
   -0.8000    1.3856    0.0000 O   0  0  0  0  0  0  0  0  0  0  0  0
   -2.4000    1.3856    0.0000 H   0  0  0  0  0  0  0  0  0  0  0  0
  1  2  1  0  0  0  0
  2  3  1  0  0  0  0
  3  4  1  0  0  0  0
  3  5  2  0  0  0  0
  5  6  1  0  0  0  0
  5  7  1  0  0  0  0
  7  8  1  0  0  0  0
  7  9  2  0  0  0  0
  9 10  1  0  0  0  0
  9 11  1  0  0  0  0
 11  2  2  0  0  0  0
 11 12  1  0  0  0  0
 12 13  1  0  0  0  0
M  END
> <ChemID>
102303

> <source_casrn>
576-24-9

> <CAS>
576-24-9

> <SMILES>
Oc1cccc(Cl)c1Cl

> <NAME>
2,3-DICHLOROPHENOL

> <preferred_name>
2,3-Dichlorophenol

> <iupac>
2,3-dichlorophenol

> <MPID>
21319

> <dsstox_substance_id>
DTXSID7025001

> <Canonical_QSARr>
Oc1cccc(Cl)c1Cl

> <InChI_Code_QSARr>
InChI=1S/C6H4Cl2O/c7-4-2-1-3-5(9)6(4)8/h1-3,9H

> <InChI Key_QSARr>
UMPSXRYVXUPCOS-UHFFFAOYSA-N

> <Salt_Solvent>
?

> <BP>
206.0

$$$$
102307
  -INDIGO-08031720192D

 14 14  0  0  0  0  0  0  0  0999 V2000
    0.0000   -0.0000    0.0000 C   0  0  0  0  0  0  0  0  0  0  0  0
   -0.8000    1.3856    0.0000 C   0  0  0  0  0  0  0  0  0  0  0  0
    0.0000    2.7713    0.0000 Br  0  0  0  0  0  0  0  0  0  0  0  0
   -2.4000    1.3856    0.0000 C   0  0  0  0  0  0  0  0  0  0  0  0
   -3.2000    2.7713    0.0000 H   0  0  0  0  0  0  0  0  0  0  0  0
   -3.2000   -0.0000    0.0000 C   0  0  0  0  0  0  0  0  0  0  0  0
   -4.8000   -0.0000    0.0000 H   0  0  0  0  0  0  0  0  0  0  0  0
   -2.4000   -1.3856    0.0000 C   0  0  0  0  0  0  0  0  0  0  0  0
   -3.2000   -2.7713    0.0000 H   0  0  0  0  0  0  0  0  0  0  0  0
   -0.8000   -1.3856    0.0000 C   0  0  0  0  0  0  0  0  0  0  0  0
    0.0000   -2.7713    0.0000 H   0  0  0  0  0  0  0  0  0  0  0  0
    1.6000   -0.0000    0.0000 N   0  0  0  0  0  0  0  0  0  0  0  0
    2.4000    1.3856    0.0000 O   0  0  0  0  0  0  0  0  0  0  0  0
    2.4000   -1.3856    0.0000 O   0  0  0  0  0  0  0  0  0  0  0  0
  1  2  1  0  0  0  0
  2  3  1  0  0  0  0
  2  4  2  0  0  0  0
  4  5  1  0  0  0  0
  4  6  1  0  0  0  0
  6  7  1  0  0  0  0
  6  8  2  0  0  0  0
  8  9  1  0  0  0  0
  8 10  1  0  0  0  0
 10  1  2  0  0  0  0
 10 11  1  0  0  0  0
  1 12  1  0  0  0  0
 12 13  2  0  0  0  0
 12 14  1  0  0  0  0
M  CHG  2  12   1  14  -1
M  END
> <ChemID>
102307

> <source_casrn>
577-19-5

> <CAS>
577-19-5

> <SMILES>
[O-][N+](=O)c1ccccc1Br

> <NAME>
O-BROMONITROBENZENE

> <preferred_name>
o-Bromonitrobenzene

> <iupac>
1-Bromo-2-nitrobenzene

> <MPID>
21323

> <dsstox_substance_id>
DTXSID9060364

> <Canonical_QSARr>
[O-][N+](=O)c1ccccc1Br

> <InChI_Code_QSARr>
InChI=1S/C6H4BrNO2/c7-5-3-1-2-4-6(5)8(9)10/h1-4H

> <InChI Key_QSARr>
ORPVVAKYSXQCJI-UHFFFAOYSA-N

> <Salt_Solvent>
?

> <BP>
258.0

$$$$
102311
  -INDIGO-08031720192D

 16 16  0  0  0  0  0  0  0  0999 V2000
    0.0001   -0.0000    0.0000 C   0  0  0  0  0  0  0  0  0  0  0  0
    0.0001   -1.6000    0.0000 C   0  0  0  0  0  0  0  0  0  0  0  0
    1.3856   -2.4000    0.0000 Br  0  0  0  0  0  0  0  0  0  0  0  0
   -1.3856   -2.4000    0.0000 C   0  0  0  0  0  0  0  0  0  0  0  0
   -1.3856   -4.0000    0.0000 H   0  0  0  0  0  0  0  0  0  0  0  0
   -2.7712   -1.6000    0.0000 C   0  0  0  0  0  0  0  0  0  0  0  0
   -4.1569   -2.4000    0.0000 H   0  0  0  0  0  0  0  0  0  0  0  0
   -2.7712   -0.0000    0.0000 C   0  0  0  0  0  0  0  0  0  0  0  0
   -4.1569    0.8000    0.0000 H   0  0  0  0  0  0  0  0  0  0  0  0
   -1.3856    0.8000    0.0000 C   0  0  0  0  0  0  0  0  0  0  0  0
   -1.3856    2.4000    0.0000 H   0  0  0  0  0  0  0  0  0  0  0  0
    1.3856    0.8000    0.0000 O   0  0  0  0  0  0  0  0  0  0  0  0
    2.7713   -0.0000    0.0000 C   0  0  0  0  0  0  0  0  0  0  0  0
    4.1569    0.8000    0.0000 H   0  0  0  0  0  0  0  0  0  0  0  0
    4.1569   -0.8000    0.0000 H   0  0  0  0  0  0  0  0  0  0  0  0
    2.7713    1.6000    0.0000 H   0  0  0  0  0  0  0  0  0  0  0  0
  1  2  1  0  0  0  0
  2  3  1  0  0  0  0
  2  4  2  0  0  0  0
  4  5  1  0  0  0  0
  4  6  1  0  0  0  0
  6  7  1  0  0  0  0
  6  8  2  0  0  0  0
  8  9  1  0  0  0  0
  8 10  1  0  0  0  0
 10  1  2  0  0  0  0
 10 11  1  0  0  0  0
  1 12  1  0  0  0  0
 12 13  1  0  0  0  0
 13 14  1  0  0  0  0
 13 15  1  0  0  0  0
 13 16  1  0  0  0  0
M  END
> <ChemID>
102311

> <source_casrn>
578-57-4

> <CAS>
578-57-4

> <SMILES>
COc1ccccc1Br

> <NAME>
1-BROMO-2-METHOXYBENZENE

> <preferred_name>
Benzene, 1-bromo-2-methoxy-

> <iupac>
1-Bromo-2-methoxybenzene

> <MPID>
21327

> <dsstox_substance_id>
DTXSID4060367

> <Canonical_QSARr>
COc1ccccc1Br

> <InChI_Code_QSARr>
InChI=1S/C7H7BrO/c1-9-7-5-3-2-4-6(7)8/h2-5H,1H3

> <InChI Key_QSARr>
HTDQSWDEWGSAMN-UHFFFAOYSA-N

> <Salt_Solvent>
?

> <BP>
216.0

$$$$
102315
  -INDIGO-08031720192D

 22 22  0  0  0  0  0  0  0  0999 V2000
   -1.3857   -0.7999    0.0000 C   0  0  0  0  0  0  0  0  0  0  0  0
    0.0001    0.0000    0.0000 N   0  0  0  0  0  0  0  0  0  0  0  0
    1.3857   -0.7999    0.0000 C   0  0  0  0  0  0  0  0  0  0  0  0
    2.7713    0.0000    0.0000 C   0  0  0  0  0  0  0  0  0  0  0  0
    4.1569    0.8001    0.0000 H   0  0  0  0  0  0  0  0  0  0  0  0
    4.1569   -0.7999    0.0000 H   0  0  0  0  0  0  0  0  0  0  0  0
    2.7713    1.6000    0.0000 H   0  0  0  0  0  0  0  0  0  0  0  0
    1.3857   -2.3999    0.0000 O   0  0  0  0  0  0  0  0  0  0  0  0
    0.0001    1.6000    0.0000 C   0  0  0  0  0  0  0  0  0  0  0  0
    0.0001    3.2000    0.0000 H   0  0  0  0  0  0  0  0  0  0  0  0
    1.3857    2.4001    0.0000 H   0  0  0  0  0  0  0  0  0  0  0  0
   -1.3857    2.4001    0.0000 H   0  0  0  0  0  0  0  0  0  0  0  0
   -1.3857   -2.4001    0.0000 C   0  0  0  0  0  0  0  0  0  0  0  0
    0.0001   -3.2000    0.0000 H   0  0  0  0  0  0  0  0  0  0  0  0
   -2.7713   -3.2000    0.0000 C   0  0  0  0  0  0  0  0  0  0  0  0
   -2.7713   -4.8000    0.0000 H   0  0  0  0  0  0  0  0  0  0  0  0
   -4.1569   -2.3999    0.0000 C   0  0  0  0  0  0  0  0  0  0  0  0
   -5.5426   -3.2000    0.0000 H   0  0  0  0  0  0  0  0  0  0  0  0
   -4.1569   -0.7999    0.0000 C   0  0  0  0  0  0  0  0  0  0  0  0
   -5.5426    0.0000    0.0000 H   0  0  0  0  0  0  0  0  0  0  0  0
   -2.7713    0.0000    0.0000 C   0  0  0  0  0  0  0  0  0  0  0  0
   -2.7713    1.6000    0.0000 H   0  0  0  0  0  0  0  0  0  0  0  0
  1  2  1  0  0  0  0
  2  3  1  0  0  0  0
  3  4  1  0  0  0  0
  4  5  1  0  0  0  0
  4  6  1  0  0  0  0
  4  7  1  0  0  0  0
  3  8  2  0  0  0  0
  2  9  1  0  0  0  0
  9 10  1  0  0  0  0
  9 11  1  0  0  0  0
  9 12  1  0  0  0  0
  1 13  1  0  0  0  0
 13 14  1  0  0  0  0
 13 15  2  0  0  0  0
 15 16  1  0  0  0  0
 15 17  1  0  0  0  0
 17 18  1  0  0  0  0
 17 19  2  0  0  0  0
 19 20  1  0  0  0  0
 19 21  1  0  0  0  0
 21  1  2  0  0  0  0
 21 22  1  0  0  0  0
M  END
> <ChemID>
102315

> <source_casrn>
579-10-2

> <CAS>
579-10-2

> <SMILES>
CC(=O)N(C)c1ccccc1

> <NAME>
N-METHYLACETANILIDE

> <preferred_name>
Acetamide, N-methyl-N-phenyl-

> <iupac>
N-Methyl-N-phenylacetamide

> <MPID>
21331

> <dsstox_substance_id>
DTXSID8060373

> <Canonical_QSARr>
CC(=O)N(C)c1ccccc1

> <InChI_Code_QSARr>
InChI=1S/C9H11NO/c1-8(11)10(2)9-6-4-3-5-7-9/h3-7H,1-2H3

> <InChI Key_QSARr>
LMTGCJANOQOGPI-UHFFFAOYSA-N

> <Salt_Solvent>
?

> <BP>
256.0

$$$$
102321
  -INDIGO-08031720192D

 24 25  0  0  0  0  0  0  0  0999 V2000
   -2.7713    1.6000    0.0000 C   0  0  0  0  0  0  0  0  0  0  0  0
   -1.3856    2.4000    0.0000 C   0  0  0  0  0  0  0  0  0  0  0  0
   -1.3856    4.0000    0.0000 H   0  0  0  0  0  0  0  0  0  0  0  0
    0.0000    1.6000    0.0000 C   0  0  0  0  0  0  0  0  0  0  0  0
    1.3857    2.4000    0.0000 C   0  0  0  0  0  0  0  0  0  0  0  0
    2.7713    3.2000    0.0000 H   0  0  0  0  0  0  0  0  0  0  0  0
    2.7713    1.6000    0.0000 H   0  0  0  0  0  0  0  0  0  0  0  0
    1.3857    4.0000    0.0000 H   0  0  0  0  0  0  0  0  0  0  0  0
    0.0000    0.0000    0.0000 C   0  0  0  0  0  0  0  0  0  0  0  0
    1.3857   -0.8000    0.0000 C   0  0  0  0  0  0  0  0  0  0  0  0
    2.7713   -1.6000    0.0000 H   0  0  0  0  0  0  0  0  0  0  0  0
    1.3857   -2.4000    0.0000 H   0  0  0  0  0  0  0  0  0  0  0  0
    2.7713    0.0000    0.0000 H   0  0  0  0  0  0  0  0  0  0  0  0
   -1.3856   -0.8000    0.0000 C   0  0  0  0  0  0  0  0  0  0  0  0
   -1.3856   -2.4000    0.0000 H   0  0  0  0  0  0  0  0  0  0  0  0
   -2.7713    0.0000    0.0000 C   0  0  0  0  0  0  0  0  0  0  0  0
   -4.1570   -0.8000    0.0000 C   0  0  0  0  0  0  0  0  0  0  0  0
   -4.1570   -2.4000    0.0000 H   0  0  0  0  0  0  0  0  0  0  0  0
   -5.5426    0.0000    0.0000 C   0  0  0  0  0  0  0  0  0  0  0  0
   -6.9282   -0.8000    0.0000 H   0  0  0  0  0  0  0  0  0  0  0  0
   -5.5426    1.6000    0.0000 C   0  0  0  0  0  0  0  0  0  0  0  0
   -6.9282    2.4000    0.0000 H   0  0  0  0  0  0  0  0  0  0  0  0
   -4.1570    2.4000    0.0000 C   0  0  0  0  0  0  0  0  0  0  0  0
   -4.1570    4.0000    0.0000 H   0  0  0  0  0  0  0  0  0  0  0  0
  1  2  1  0  0  0  0
  2  3  1  0  0  0  0
  2  4  2  0  0  0  0
  4  5  1  0  0  0  0
  5  6  1  0  0  0  0
  5  7  1  0  0  0  0
  5  8  1  0  0  0  0
  4  9  1  0  0  0  0
  9 10  1  0  0  0  0
 10 11  1  0  0  0  0
 10 12  1  0  0  0  0
 10 13  1  0  0  0  0
  9 14  2  0  0  0  0
 14 15  1  0  0  0  0
 14 16  1  0  0  0  0
 16  1  1  0  0  0  0
 16 17  2  0  0  0  0
 17 18  1  0  0  0  0
 17 19  1  0  0  0  0
 19 20  1  0  0  0  0
 19 21  2  0  0  0  0
 21 22  1  0  0  0  0
 21 23  1  0  0  0  0
 23  1  2  0  0  0  0
 23 24  1  0  0  0  0
M  END
> <ChemID>
102321

> <source_casrn>
581-40-8

> <CAS>
581-40-8

> <SMILES>
Cc1cc2ccccc2cc1C

> <NAME>
2,3-DIMETHYLNAPHTHALENE

> <preferred_name>
2,3-Dimethylnaphthalene

> <iupac>
2,3-Dimethylnaphthalene

> <MPID>
21336

> <dsstox_substance_id>
DTXSID2060383

> <Canonical_QSARr>
Cc1cc2ccccc2cc1C

> <InChI_Code_QSARr>
InChI=1S/C12H12/c1-9-7-11-5-3-4-6-12(11)8-10(9)2/h3-8H,1-2H3

> <InChI Key_QSARr>
WWGUMAYGTYQSGA-UHFFFAOYSA-N

> <Salt_Solvent>
?

> <BP>
268.0

$$$$
102325
  -INDIGO-08031720192D

 20 21  0  0  0  0  0  0  0  0999 V2000
   -2.4001    1.3856    0.0000 N   0  0  0  0  0  0  0  0  0  0  0  0
   -1.6001   -0.0000    0.0000 C   0  0  0  0  0  0  0  0  0  0  0  0
    0.0001   -0.0000    0.0000 C   0  0  0  0  0  0  0  0  0  0  0  0
    0.8001    1.3856    0.0000 C   0  0  0  0  0  0  0  0  0  0  0  0
    0.0001    2.7713    0.0000 H   0  0  0  0  0  0  0  0  0  0  0  0
    2.4000    1.3856    0.0000 C   0  0  0  0  0  0  0  0  0  0  0  0
    3.2000    2.7713    0.0000 H   0  0  0  0  0  0  0  0  0  0  0  0
    3.2000   -0.0000    0.0000 C   0  0  0  0  0  0  0  0  0  0  0  0
    4.8000   -0.0000    0.0000 H   0  0  0  0  0  0  0  0  0  0  0  0
    2.4000   -1.3856    0.0000 N   0  0  0  0  0  0  0  0  0  0  0  0
    0.8001   -1.3856    0.0000 C   0  0  0  0  0  0  0  0  0  0  0  0
    0.0001   -2.7713    0.0000 H   0  0  0  0  0  0  0  0  0  0  0  0
   -2.4001   -1.3856    0.0000 C   0  0  0  0  0  0  0  0  0  0  0  0
   -1.6001   -2.7713    0.0000 H   0  0  0  0  0  0  0  0  0  0  0  0
   -4.0000   -1.3856    0.0000 C   0  0  0  0  0  0  0  0  0  0  0  0
   -4.8000   -2.7713    0.0000 H   0  0  0  0  0  0  0  0  0  0  0  0
   -4.8000   -0.0000    0.0000 C   0  0  0  0  0  0  0  0  0  0  0  0
   -6.4000   -0.0000    0.0000 H   0  0  0  0  0  0  0  0  0  0  0  0
   -4.0000    1.3856    0.0000 C   0  0  0  0  0  0  0  0  0  0  0  0
   -4.8000    2.7713    0.0000 H   0  0  0  0  0  0  0  0  0  0  0  0
  1  2  1  0  0  0  0
  2  3  1  0  0  0  0
  3  4  1  0  0  0  0
  4  5  1  0  0  0  0
  4  6  2  0  0  0  0
  6  7  1  0  0  0  0
  6  8  1  0  0  0  0
  8  9  1  0  0  0  0
  8 10  2  0  0  0  0
 10 11  1  0  0  0  0
 11  3  2  0  0  0  0
 11 12  1  0  0  0  0
  2 13  2  0  0  0  0
 13 14  1  0  0  0  0
 13 15  1  0  0  0  0
 15 16  1  0  0  0  0
 15 17  2  0  0  0  0
 17 18  1  0  0  0  0
 17 19  1  0  0  0  0
 19  1  2  0  0  0  0
 19 20  1  0  0  0  0
M  END
> <ChemID>
102325

> <source_casrn>
581-50-0

> <CAS>
581-50-0

> <SMILES>
c1[n]cccc1-c1cccc[n]1

> <NAME>
2,3'-BIPYRIDINE

> <preferred_name>
2,3'-Bipyridine

> <iupac>
2-pyridin-3-ylpyridine

> <MPID>
21340

> <dsstox_substance_id>
DTXSID00206823

> <Canonical_QSARr>
c1[n]cccc1-c1cccc[n]1

> <InChI_Code_QSARr>
InChI=1S/C10H8N2/c1-2-7-12-10(5-1)9-4-3-6-11-8-9/h1-8H

> <InChI Key_QSARr>
VEKIYFGCEAJDDT-UHFFFAOYSA-N

> <Salt_Solvent>
?

> <BP>
295.5

$$$$
102329
  -INDIGO-08031720192D

 23 23  0  0  0  0  0  0  0  0999 V2000
    2.7292    0.4812    0.0000 N   0  0  0  0  0  0  0  0  0  0  0  0
    4.2327   -0.0660    0.0000 H   0  0  0  0  0  0  0  0  0  0  0  0
    2.4514    2.0570    0.0000 H   0  0  0  0  0  0  0  0  0  0  0  0
    1.5036   -0.5472    0.0000 C   0  0  0  0  0  0  0  0  0  0  0  0
    1.1572   -2.1093    0.0000 H   0  0  0  0  0  0  0  0  0  0  0  0
    2.3631   -1.8967    0.0000 H   0  0  0  0  0  0  0  0  0  0  0  0
    0.0001    0.0000    0.0000 C   0  0  0  0  0  0  0  0  0  0  0  0
    0.0001   -1.6000    0.0000 H   0  0  0  0  0  0  0  0  0  0  0  0
   -1.6000    0.0000    0.0000 C   0  0  0  0  0  0  0  0  0  0  0  0
   -2.4000    1.3856    0.0000 C   0  0  0  0  0  0  0  0  0  0  0  0
   -1.6000    2.7713    0.0000 H   0  0  0  0  0  0  0  0  0  0  0  0
   -4.0001    1.3856    0.0000 C   0  0  0  0  0  0  0  0  0  0  0  0
   -4.7999    2.7713    0.0000 H   0  0  0  0  0  0  0  0  0  0  0  0
   -4.7999    0.0000    0.0000 C   0  0  0  0  0  0  0  0  0  0  0  0
   -6.4000    0.0000    0.0000 H   0  0  0  0  0  0  0  0  0  0  0  0
   -4.0001   -1.3857    0.0000 C   0  0  0  0  0  0  0  0  0  0  0  0
   -4.7999   -2.7713    0.0000 H   0  0  0  0  0  0  0  0  0  0  0  0
   -2.4000   -1.3857    0.0000 C   0  0  0  0  0  0  0  0  0  0  0  0
   -1.6000   -2.7713    0.0000 H   0  0  0  0  0  0  0  0  0  0  0  0
    0.0001    1.6000    0.0000 C   0  0  0  0  0  0  0  0  0  0  0  0
    1.3856    2.4000    0.0000 H   0  0  0  0  0  0  0  0  0  0  0  0
    0.0001    3.2000    0.0000 H   0  0  0  0  0  0  0  0  0  0  0  0
    1.3856    0.8000    0.0000 H   0  0  0  0  0  0  0  0  0  0  0  0
  1  2  1  0  0  0  0
  1  3  1  0  0  0  0
  1  4  1  0  0  0  0
  4  5  1  0  0  0  0
  4  6  1  0  0  0  0
  4  7  1  0  0  0  0
  7  8  1  0  0  0  0
  7  9  1  0  0  0  0
  9 10  1  0  0  0  0
 10 11  1  0  0  0  0
 10 12  2  0  0  0  0
 12 13  1  0  0  0  0
 12 14  1  0  0  0  0
 14 15  1  0  0  0  0
 14 16  2  0  0  0  0
 16 17  1  0  0  0  0
 16 18  1  0  0  0  0
 18  9  2  0  0  0  0
 18 19  1  0  0  0  0
  7 20  1  0  0  0  0
 20 21  1  0  0  0  0
 20 22  1  0  0  0  0
 20 23  1  0  0  0  0
M  END
> <ChemID>
102329

> <source_casrn>
582-22-9

> <CAS>
28163-64-6

> <SMILES>
C[C@@H](CN)c1ccccc1

> <NAME>
1-Amino-2-methyl-2-phenylethane

> <preferred_name>
(R)-(+)-beta-Methylphenethylamine

> <iupac>
C9H13N

> <MPID>
21344

> <dsstox_substance_id>
DTXSID90364269

> <Canonical_QSARr>
CC(CN)c1ccccc1

> <InChI_Code_QSARr>
InChI=1S/C9H13N/c1-8(7-10)9-5-3-2-4-6-9/h2-6,8H,7,10H2,1H3

> <InChI Key_QSARr>
AXORVIZLPOGIRG-UHFFFAOYSA-N

> <Salt_Solvent>
?

> <BP>
210.0

$$$$
102333
  -INDIGO-08031720192D

 26 25  0  0  0  0  0  0  0  0999 V2000
    2.7712    0.0000    0.0000 C   0  0  0  0  0  0  0  0  0  0  0  0
    4.1569   -0.8000    0.0000 H   0  0  0  0  0  0  0  0  0  0  0  0
    4.1569    0.8000    0.0000 H   0  0  0  0  0  0  0  0  0  0  0  0
    2.7712   -1.6000    0.0000 H   0  0  0  0  0  0  0  0  0  0  0  0
    1.3857   -0.8000    0.0000 C   0  0  0  0  0  0  0  0  0  0  0  0
    1.9980   -2.2782    0.0000 H   0  0  0  0  0  0  0  0  0  0  0  0
    0.7733   -2.2782    0.0000 H   0  0  0  0  0  0  0  0  0  0  0  0
    0.0000    0.0000    0.0000 C   0  0  0  0  0  0  0  0  0  0  0  0
   -0.8001   -1.3857    0.0000 H   0  0  0  0  0  0  0  0  0  0  0  0
   -1.5035    0.5472    0.0000 C   0  0  0  0  0  0  0  0  0  0  0  0
   -0.7034    1.9329    0.0000 H   0  0  0  0  0  0  0  0  0  0  0  0
   -2.8892    1.3473    0.0000 C   0  0  0  0  0  0  0  0  0  0  0  0
   -3.5015    2.8254    0.0000 H   0  0  0  0  0  0  0  0  0  0  0  0
   -2.2768    2.8254    0.0000 H   0  0  0  0  0  0  0  0  0  0  0  0
   -4.2748    0.5472    0.0000 C   0  0  0  0  0  0  0  0  0  0  0  0
   -5.6604    1.3473    0.0000 H   0  0  0  0  0  0  0  0  0  0  0  0
   -5.6604   -0.2528    0.0000 H   0  0  0  0  0  0  0  0  0  0  0  0
   -4.2748    2.1472    0.0000 H   0  0  0  0  0  0  0  0  0  0  0  0
   -2.3035   -0.8384    0.0000 C   0  0  0  0  0  0  0  0  0  0  0  0
   -3.1034   -2.2241    0.0000 H   0  0  0  0  0  0  0  0  0  0  0  0
   -3.9035   -0.8384    0.0000 H   0  0  0  0  0  0  0  0  0  0  0  0
   -1.5035   -2.2241    0.0000 H   0  0  0  0  0  0  0  0  0  0  0  0
    0.8000    1.3857    0.0000 C   0  0  0  0  0  0  0  0  0  0  0  0
    1.5999    2.7713    0.0000 H   0  0  0  0  0  0  0  0  0  0  0  0
    2.4000    1.3857    0.0000 H   0  0  0  0  0  0  0  0  0  0  0  0
    0.0000    2.7713    0.0000 H   0  0  0  0  0  0  0  0  0  0  0  0
  1  2  1  0  0  0  0
  1  3  1  0  0  0  0
  1  4  1  0  0  0  0
  1  5  1  0  0  0  0
  5  6  1  0  0  0  0
  5  7  1  0  0  0  0
  5  8  1  0  0  0  0
  8  9  1  0  0  0  0
  8 10  1  0  0  0  0
 10 11  1  0  0  0  0
 10 12  1  0  0  0  0
 12 13  1  0  0  0  0
 12 14  1  0  0  0  0
 12 15  1  0  0  0  0
 15 16  1  0  0  0  0
 15 17  1  0  0  0  0
 15 18  1  0  0  0  0
 10 19  1  0  0  0  0
 19 20  1  0  0  0  0
 19 21  1  0  0  0  0
 19 22  1  0  0  0  0
  8 23  1  0  0  0  0
 23 24  1  0  0  0  0
 23 25  1  0  0  0  0
 23 26  1  0  0  0  0
M  END
> <ChemID>
102333

> <source_casrn>
583-48-2

> <CAS>
NOCAS_862234

> <SMILES>
CC(CC)C(C)CC

> <NAME>
3,4-DIMETHYLHEXANE

> <preferred_name>


> <iupac>


> <MPID>
21348

> <dsstox_substance_id>
DTXSID30862234

> <Canonical_QSARr>
CC(CC)C(C)CC

> <InChI_Code_QSARr>
InChI=1S/C8H18/c1-5-7(3)8(4)6-2/h7-8H,5-6H2,1-4H3

> <InChI Key_QSARr>
RNTWWGNZUXGTAX-UHFFFAOYSA-N

> <Salt_Solvent>
?

> <BP>
117.7

$$$$
102337
  -INDIGO-08031720192D

 17 17  0  0  0  0  0  0  0  0999 V2000
    0.0000    1.6000    0.0000 C   0  0  0  0  0  0  0  0  0  0  0  0
    1.3856    2.4000    0.0000 C   0  0  0  0  0  0  0  0  0  0  0  0
    1.3856    4.0000    0.0000 H   0  0  0  0  0  0  0  0  0  0  0  0
    2.7713    1.6000    0.0000 N   0  0  0  0  0  0  0  0  0  0  0  0
    2.7713    0.0000    0.0000 C   0  0  0  0  0  0  0  0  0  0  0  0
    4.1569   -0.8000    0.0000 H   0  0  0  0  0  0  0  0  0  0  0  0
    1.3856   -0.8000    0.0000 C   0  0  0  0  0  0  0  0  0  0  0  0
    1.3856   -2.4000    0.0000 H   0  0  0  0  0  0  0  0  0  0  0  0
    0.0000    0.0000    0.0000 C   0  0  0  0  0  0  0  0  0  0  0  0
   -1.3856   -0.8000    0.0000 C   0  0  0  0  0  0  0  0  0  0  0  0
   -2.7713   -1.6000    0.0000 H   0  0  0  0  0  0  0  0  0  0  0  0
   -1.3856   -2.4000    0.0000 H   0  0  0  0  0  0  0  0  0  0  0  0
   -2.7713    0.0000    0.0000 H   0  0  0  0  0  0  0  0  0  0  0  0
   -1.3856    2.4000    0.0000 C   0  0  0  0  0  0  0  0  0  0  0  0
   -2.7713    3.2000    0.0000 H   0  0  0  0  0  0  0  0  0  0  0  0
   -1.3856    4.0000    0.0000 H   0  0  0  0  0  0  0  0  0  0  0  0
   -2.7713    1.6000    0.0000 H   0  0  0  0  0  0  0  0  0  0  0  0
  1  2  1  0  0  0  0
  2  3  1  0  0  0  0
  2  4  2  0  0  0  0
  4  5  1  0  0  0  0
  5  6  1  0  0  0  0
  5  7  2  0  0  0  0
  7  8  1  0  0  0  0
  7  9  1  0  0  0  0
  9  1  2  0  0  0  0
  9 10  1  0  0  0  0
 10 11  1  0  0  0  0
 10 12  1  0  0  0  0
 10 13  1  0  0  0  0
  1 14  1  0  0  0  0
 14 15  1  0  0  0  0
 14 16  1  0  0  0  0
 14 17  1  0  0  0  0
M  END
> <ChemID>
102337

> <source_casrn>
583-58-4

> <CAS>
583-58-4

> <SMILES>
Cc1c[n]ccc1C

> <NAME>
3,4-DIMETHYLPYRIDINE

> <preferred_name>
3,4-Dimethylpyridine

> <iupac>
3,4-dimethylpyridine

> <MPID>
21352

> <dsstox_substance_id>
DTXSID1052244

> <Canonical_QSARr>
Cc1c[n]ccc1C

> <InChI_Code_QSARr>
InChI=1S/C7H9N/c1-6-3-4-8-5-7(6)2/h3-5H,1-2H3

> <InChI Key_QSARr>
NURQLCJSMXZBPC-UHFFFAOYSA-N

> <Salt_Solvent>
?

> <BP>
179.1

$$$$
102341
  -INDIGO-08031720192D

 17 17  0  0  0  0  0  0  0  0999 V2000
    2.4000    1.3856    0.0000 C   0  0  0  0  0  0  0  0  0  0  0  0
    3.2000   -0.0000    0.0000 C   0  0  0  0  0  0  0  0  0  0  0  0
    4.8000   -0.0000    0.0000 N   0  0  0  0  0  0  0  0  0  0  0  0
    5.6000    1.3856    0.0000 H   0  0  0  0  0  0  0  0  0  0  0  0
    5.6000   -1.3856    0.0000 H   0  0  0  0  0  0  0  0  0  0  0  0
    2.4000   -1.3856    0.0000 C   0  0  0  0  0  0  0  0  0  0  0  0
    3.2000   -2.7713    0.0000 H   0  0  0  0  0  0  0  0  0  0  0  0
    0.8000   -1.3856    0.0000 C   0  0  0  0  0  0  0  0  0  0  0  0
    0.0000   -2.7713    0.0000 H   0  0  0  0  0  0  0  0  0  0  0  0
    0.0000    0.0000    0.0000 C   0  0  0  0  0  0  0  0  0  0  0  0
   -1.6001    0.0000    0.0000 C   0  0  0  0  0  0  0  0  0  0  0  0
   -3.2000    0.0000    0.0000 H   0  0  0  0  0  0  0  0  0  0  0  0
   -2.4000   -1.3856    0.0000 H   0  0  0  0  0  0  0  0  0  0  0  0
   -2.4000    1.3856    0.0000 H   0  0  0  0  0  0  0  0  0  0  0  0
    0.8000    1.3856    0.0000 C   0  0  0  0  0  0  0  0  0  0  0  0
    0.0000    2.7713    0.0000 H   0  0  0  0  0  0  0  0  0  0  0  0
    3.2000    2.7713    0.0000 Br  0  0  0  0  0  0  0  0  0  0  0  0
  1  2  1  0  0  0  0
  2  3  1  0  0  0  0
  3  4  1  0  0  0  0
  3  5  1  0  0  0  0
  2  6  2  0  0  0  0
  6  7  1  0  0  0  0
  6  8  1  0  0  0  0
  8  9  1  0  0  0  0
  8 10  2  0  0  0  0
 10 11  1  0  0  0  0
 11 12  1  0  0  0  0
 11 13  1  0  0  0  0
 11 14  1  0  0  0  0
 10 15  1  0  0  0  0
 15  1  2  0  0  0  0
 15 16  1  0  0  0  0
  1 17  1  0  0  0  0
M  END
> <ChemID>
102341

> <source_casrn>
583-68-6

> <CAS>
583-68-6

> <SMILES>
Cc1cc(Br)c(N)cc1

> <NAME>
Benzenamine, 2-bromo-4-methyl-

> <preferred_name>
Benzenamine, 2-bromo-4-methyl-

> <iupac>
2-Bromo-4-methylaniline

> <MPID>
21356

> <dsstox_substance_id>
DTXSID1060396

> <Canonical_QSARr>
Cc1cc(Br)c(N)cc1

> <InChI_Code_QSARr>
InChI=1S/C7H8BrN/c1-5-2-3-7(9)6(8)4-5/h2-4H,9H2,1H3

> <InChI Key_QSARr>
UVRRJILIXQAAFK-UHFFFAOYSA-N

> <Salt_Solvent>
?

> <BP>
240.0

$$$$
102345
  -INDIGO-08031720192D

 13 13  0  0  0  0  0  0  0  0999 V2000
    0.8000    1.3856    0.0000 O   0  0  0  0  0  0  0  0  0  0  0  0
    2.4000    1.3856    0.0000 H   0  0  0  0  0  0  0  0  0  0  0  0
   -0.0000   -0.0000    0.0000 C   0  0  0  0  0  0  0  0  0  0  0  0
    0.8000   -1.3857    0.0000 C   0  0  0  0  0  0  0  0  0  0  0  0
    2.4000   -1.3857    0.0000 H   0  0  0  0  0  0  0  0  0  0  0  0
   -0.0000   -2.7713    0.0000 C   0  0  0  0  0  0  0  0  0  0  0  0
    0.8000   -4.1569    0.0000 Cl  0  0  0  0  0  0  0  0  0  0  0  0
   -1.6000   -2.7713    0.0000 C   0  0  0  0  0  0  0  0  0  0  0  0
   -2.4000   -4.1569    0.0000 H   0  0  0  0  0  0  0  0  0  0  0  0
   -2.4000   -1.3856    0.0000 C   0  0  0  0  0  0  0  0  0  0  0  0
   -4.0000   -1.3856    0.0000 H   0  0  0  0  0  0  0  0  0  0  0  0
   -1.6000   -0.0000    0.0000 C   0  0  0  0  0  0  0  0  0  0  0  0
   -2.4000    1.3856    0.0000 Cl  0  0  0  0  0  0  0  0  0  0  0  0
  1  2  1  0  0  0  0
  1  3  1  0  0  0  0
  3  4  1  0  0  0  0
  4  5  1  0  0  0  0
  4  6  2  0  0  0  0
  6  7  1  0  0  0  0
  6  8  1  0  0  0  0
  8  9  1  0  0  0  0
  8 10  2  0  0  0  0
 10 11  1  0  0  0  0
 10 12  1  0  0  0  0
 12  3  2  0  0  0  0
 12 13  1  0  0  0  0
M  END
> <ChemID>
102345

> <source_casrn>
583-78-8

> <CAS>
583-78-8

> <SMILES>
Oc1cc(Cl)ccc1Cl

> <NAME>
2,5-DICHLOROPHENOL

> <preferred_name>
2,5-Dichlorophenol

> <iupac>
2,5-dichlorophenol

> <MPID>
21360

> <dsstox_substance_id>
DTXSID7025003

> <Canonical_QSARr>
Oc1cc(Cl)ccc1Cl

> <InChI_Code_QSARr>
InChI=1S/C6H4Cl2O/c7-4-1-2-5(8)6(9)3-4/h1-3,9H

> <InChI Key_QSARr>
RANCECPPZPIPNO-UHFFFAOYSA-N

> <Salt_Solvent>
?

> <BP>
211.0

$$$$
102349
  -INDIGO-08031720192D

 26 25  0  0  0  0  0  0  0  0999 V2000
    1.8778   -1.5757    0.0000 C   0  0  0  0  0  0  0  0  0  0  0  0
    2.1556   -3.1514    0.0000 H   0  0  0  0  0  0  0  0  0  0  0  0
    3.3813   -2.1229    0.0000 H   0  0  0  0  0  0  0  0  0  0  0  0
    0.6522   -2.6042    0.0000 H   0  0  0  0  0  0  0  0  0  0  0  0
    1.5999    0.0000    0.0000 C   0  0  0  0  0  0  0  0  0  0  0  0
    1.3221    1.5757    0.0000 H   0  0  0  0  0  0  0  0  0  0  0  0
    0.0000    0.0000    0.0000 C   0  0  0  0  0  0  0  0  0  0  0  0
    0.0000   -1.6000    0.0000 H   0  0  0  0  0  0  0  0  0  0  0  0
   -1.6000    0.0000    0.0000 C   0  0  0  0  0  0  0  0  0  0  0  0
   -2.8693    0.9740    0.0000 H   0  0  0  0  0  0  0  0  0  0  0  0
   -1.8088    1.5863    0.0000 H   0  0  0  0  0  0  0  0  0  0  0  0
   -2.4001   -1.3857    0.0000 C   0  0  0  0  0  0  0  0  0  0  0  0
   -1.1306   -2.3597    0.0000 H   0  0  0  0  0  0  0  0  0  0  0  0
   -2.1911   -2.9720    0.0000 H   0  0  0  0  0  0  0  0  0  0  0  0
   -3.9999   -1.3857    0.0000 C   0  0  0  0  0  0  0  0  0  0  0  0
   -5.6000   -1.3857    0.0000 H   0  0  0  0  0  0  0  0  0  0  0  0
   -4.8000   -2.7713    0.0000 H   0  0  0  0  0  0  0  0  0  0  0  0
   -4.8000    0.0000    0.0000 H   0  0  0  0  0  0  0  0  0  0  0  0
    0.0000    1.6000    0.0000 C   0  0  0  0  0  0  0  0  0  0  0  0
    0.0000    3.2000    0.0000 H   0  0  0  0  0  0  0  0  0  0  0  0
   -1.2257    2.6285    0.0000 H   0  0  0  0  0  0  0  0  0  0  0  0
    1.2257    2.6285    0.0000 H   0  0  0  0  0  0  0  0  0  0  0  0
    3.1757    0.2778    0.0000 C   0  0  0  0  0  0  0  0  0  0  0  0
    4.7514    0.5556    0.0000 H   0  0  0  0  0  0  0  0  0  0  0  0
    4.2041   -0.9478    0.0000 H   0  0  0  0  0  0  0  0  0  0  0  0
    3.7230    1.7813    0.0000 H   0  0  0  0  0  0  0  0  0  0  0  0
  1  2  1  0  0  0  0
  1  3  1  0  0  0  0
  1  4  1  0  0  0  0
  1  5  1  0  0  0  0
  5  6  1  0  0  0  0
  5  7  1  0  0  0  0
  7  8  1  0  0  0  0
  7  9  1  0  0  0  0
  9 10  1  0  0  0  0
  9 11  1  0  0  0  0
  9 12  1  0  0  0  0
 12 13  1  0  0  0  0
 12 14  1  0  0  0  0
 12 15  1  0  0  0  0
 15 16  1  0  0  0  0
 15 17  1  0  0  0  0
 15 18  1  0  0  0  0
  7 19  1  0  0  0  0
 19 20  1  0  0  0  0
 19 21  1  0  0  0  0
 19 22  1  0  0  0  0
  5 23  1  0  0  0  0
 23 24  1  0  0  0  0
 23 25  1  0  0  0  0
 23 26  1  0  0  0  0
M  END
> <ChemID>
102349

> <source_casrn>
584-94-1

> <CAS>
NOCAS_862240

> <SMILES>
CC(C)C(C)CCC

> <NAME>
2,3-DIMETHYLHEXANE

> <preferred_name>


> <iupac>


> <MPID>
21364

> <dsstox_substance_id>
DTXSID40862240

> <Canonical_QSARr>
CC(C)C(C)CCC

> <InChI_Code_QSARr>
InChI=1S/C8H18/c1-5-6-8(4)7(2)3/h7-8H,5-6H2,1-4H3

> <InChI Key_QSARr>
JXPOLSKBTUYKJB-UHFFFAOYSA-N

> <Salt_Solvent>
?

> <BP>
115.6

$$$$
102353
  -INDIGO-08031720192D

 14 14  0  0  0  0  0  0  0  0999 V2000
    0.0000   -0.0000    0.0000 C   0  0  0  0  0  0  0  0  0  0  0  0
   -0.8000    1.3856    0.0000 C   0  0  0  0  0  0  0  0  0  0  0  0
    0.0000    2.7713    0.0000 H   0  0  0  0  0  0  0  0  0  0  0  0
   -2.4000    1.3856    0.0000 C   0  0  0  0  0  0  0  0  0  0  0  0
   -3.2000    2.7713    0.0000 Br  0  0  0  0  0  0  0  0  0  0  0  0
   -3.2000   -0.0000    0.0000 C   0  0  0  0  0  0  0  0  0  0  0  0
   -4.8000   -0.0000    0.0000 H   0  0  0  0  0  0  0  0  0  0  0  0
   -2.4000   -1.3856    0.0000 C   0  0  0  0  0  0  0  0  0  0  0  0
   -3.2000   -2.7713    0.0000 H   0  0  0  0  0  0  0  0  0  0  0  0
   -0.8000   -1.3856    0.0000 C   0  0  0  0  0  0  0  0  0  0  0  0
    0.0000   -2.7713    0.0000 H   0  0  0  0  0  0  0  0  0  0  0  0
    1.6000   -0.0000    0.0000 N   0  0  0  0  0  0  0  0  0  0  0  0
    2.4000    1.3856    0.0000 O   0  0  0  0  0  0  0  0  0  0  0  0
    2.4000   -1.3856    0.0000 O   0  0  0  0  0  0  0  0  0  0  0  0
  1  2  1  0  0  0  0
  2  3  1  0  0  0  0
  2  4  2  0  0  0  0
  4  5  1  0  0  0  0
  4  6  1  0  0  0  0
  6  7  1  0  0  0  0
  6  8  2  0  0  0  0
  8  9  1  0  0  0  0
  8 10  1  0  0  0  0
 10  1  2  0  0  0  0
 10 11  1  0  0  0  0
  1 12  1  0  0  0  0
 12 13  2  0  0  0  0
 12 14  1  0  0  0  0
M  CHG  2  12   1  14  -1
M  END
> <ChemID>
102353

> <source_casrn>
585-79-5

> <CAS>
585-79-5

> <SMILES>
[O-][N+](=O)c1cccc(Br)c1

> <NAME>
3-BROMO-1-NITROBENZENE

> <preferred_name>
Benzene, 1-bromo-3-nitro-

> <iupac>
1-Bromo-3-nitrobenzene

> <MPID>
21368

> <dsstox_substance_id>
DTXSID3060409

> <Canonical_QSARr>
[O-][N+](=O)c1cccc(Br)c1

> <InChI_Code_QSARr>
InChI=1S/C6H4BrNO2/c7-5-2-1-3-6(4-5)8(9)10/h1-4H

> <InChI Key_QSARr>
FWIROFMBWVMWLB-UHFFFAOYSA-N

> <Salt_Solvent>
?

> <BP>
256.0

$$$$
102357
  -INDIGO-08031720192D

 26 26  0  0  0  0  0  0  0  0999 V2000
    3.1999   -0.0000    0.0000 C   0  0  0  0  0  0  0  0  0  0  0  0
    2.4000    1.3857    0.0000 C   0  0  0  0  0  0  0  0  0  0  0  0
    3.1999    2.7713    0.0000 H   0  0  0  0  0  0  0  0  0  0  0  0
    0.8000    1.3857    0.0000 C   0  0  0  0  0  0  0  0  0  0  0  0
    1.0779    2.9613    0.0000 H   0  0  0  0  0  0  0  0  0  0  0  0
   -0.7035    1.9329    0.0000 H   0  0  0  0  0  0  0  0  0  0  0  0
    0.0000   -0.0000    0.0000 C   0  0  0  0  0  0  0  0  0  0  0  0
   -1.6001   -0.0000    0.0000 C   0  0  0  0  0  0  0  0  0  0  0  0
   -2.4000    1.3857    0.0000 C   0  0  0  0  0  0  0  0  0  0  0  0
   -4.0000    1.3857    0.0000 H   0  0  0  0  0  0  0  0  0  0  0  0
   -3.2000    2.7713    0.0000 H   0  0  0  0  0  0  0  0  0  0  0  0
   -3.2000   -0.0000    0.0000 H   0  0  0  0  0  0  0  0  0  0  0  0
   -2.4000   -1.3857    0.0000 C   0  0  0  0  0  0  0  0  0  0  0  0
   -3.2000   -2.7713    0.0000 H   0  0  0  0  0  0  0  0  0  0  0  0
   -4.0000   -1.3857    0.0000 H   0  0  0  0  0  0  0  0  0  0  0  0
   -1.6001   -2.7713    0.0000 H   0  0  0  0  0  0  0  0  0  0  0  0
    0.8000   -1.3857    0.0000 C   0  0  0  0  0  0  0  0  0  0  0  0
   -0.7035   -1.9329    0.0000 H   0  0  0  0  0  0  0  0  0  0  0  0
    1.0779   -2.9613    0.0000 H   0  0  0  0  0  0  0  0  0  0  0  0
    2.4000   -1.3857    0.0000 C   0  0  0  0  0  0  0  0  0  0  0  0
    2.1221   -2.9613    0.0000 H   0  0  0  0  0  0  0  0  0  0  0  0
    3.9036   -1.9329    0.0000 H   0  0  0  0  0  0  0  0  0  0  0  0
    4.8000   -0.0000    0.0000 C   0  0  0  0  0  0  0  0  0  0  0  0
    6.4000   -0.0000    0.0000 H   0  0  0  0  0  0  0  0  0  0  0  0
    5.6000    1.3857    0.0000 H   0  0  0  0  0  0  0  0  0  0  0  0
    5.6000   -1.3857    0.0000 H   0  0  0  0  0  0  0  0  0  0  0  0
  1  2  2  0  0  0  0
  2  3  1  0  0  0  0
  2  4  1  0  0  0  0
  4  5  1  0  0  0  0
  4  6  1  0  0  0  0
  4  7  1  0  0  0  0
  7  8  2  0  0  0  0
  8  9  1  0  0  0  0
  9 10  1  0  0  0  0
  9 11  1  0  0  0  0
  9 12  1  0  0  0  0
  8 13  1  0  0  0  0
 13 14  1  0  0  0  0
 13 15  1  0  0  0  0
 13 16  1  0  0  0  0
  7 17  1  0  0  0  0
 17 18  1  0  0  0  0
 17 19  1  0  0  0  0
 17 20  1  0  0  0  0
 20  1  1  0  0  0  0
 20 21  1  0  0  0  0
 20 22  1  0  0  0  0
  1 23  1  0  0  0  0
 23 24  1  0  0  0  0
 23 25  1  0  0  0  0
 23 26  1  0  0  0  0
M  END
> <ChemID>
102357

> <source_casrn>
586-62-9

> <CAS>
586-62-9

> <SMILES>
CC(C)=C1CC=C(C)CC1

> <NAME>
TERPINOLENE

> <preferred_name>
Terpinolene

> <iupac>
1-methyl-4-(propan-2-ylidene)cyclohexene

> <MPID>
21372

> <dsstox_substance_id>
DTXSID0027222

> <Canonical_QSARr>
CC(C)=C1CC=C(C)CC1

> <InChI_Code_QSARr>
InChI=1S/C10H16/c1-8(2)10-6-4-9(3)5-7-10/h4H,5-7H2,1-3H3

> <InChI Key_QSARr>
MOYAFQVGZZPNRA-UHFFFAOYSA-N

> <Salt_Solvent>
?

> <BP>
186.0

$$$$
102361
  -INDIGO-08031720192D

 20 20  0  0  0  0  0  0  0  0999 V2000
    4.1569    0.8000    0.0000 N   0  0  0  0  0  0  0  0  0  0  0  0
    5.5426   -0.0000    0.0000 H   0  0  0  0  0  0  0  0  0  0  0  0
    4.1569    2.4000    0.0000 H   0  0  0  0  0  0  0  0  0  0  0  0
    2.7713   -0.0000    0.0000 C   0  0  0  0  0  0  0  0  0  0  0  0
    1.3857    0.8000    0.0000 C   0  0  0  0  0  0  0  0  0  0  0  0
    1.3857    2.4000    0.0000 H   0  0  0  0  0  0  0  0  0  0  0  0
   -0.0001   -0.0000    0.0000 C   0  0  0  0  0  0  0  0  0  0  0  0
   -1.3857    0.8000    0.0000 C   0  0  0  0  0  0  0  0  0  0  0  0
   -1.9980    2.2782    0.0000 H   0  0  0  0  0  0  0  0  0  0  0  0
   -0.7734    2.2782    0.0000 H   0  0  0  0  0  0  0  0  0  0  0  0
   -2.7713   -0.0000    0.0000 C   0  0  0  0  0  0  0  0  0  0  0  0
   -4.1569    0.8000    0.0000 H   0  0  0  0  0  0  0  0  0  0  0  0
   -4.1569   -0.8000    0.0000 H   0  0  0  0  0  0  0  0  0  0  0  0
   -2.7713    1.6000    0.0000 H   0  0  0  0  0  0  0  0  0  0  0  0
   -0.0001   -1.6000    0.0000 C   0  0  0  0  0  0  0  0  0  0  0  0
   -1.3857   -2.4000    0.0000 H   0  0  0  0  0  0  0  0  0  0  0  0
    1.3857   -2.4000    0.0000 C   0  0  0  0  0  0  0  0  0  0  0  0
    1.3857   -4.0000    0.0000 H   0  0  0  0  0  0  0  0  0  0  0  0
    2.7713   -1.6000    0.0000 C   0  0  0  0  0  0  0  0  0  0  0  0
    4.1569   -2.4000    0.0000 H   0  0  0  0  0  0  0  0  0  0  0  0
  1  2  1  0  0  0  0
  1  3  1  0  0  0  0
  1  4  1  0  0  0  0
  4  5  1  0  0  0  0
  5  6  1  0  0  0  0
  5  7  2  0  0  0  0
  7  8  1  0  0  0  0
  8  9  1  0  0  0  0
  8 10  1  0  0  0  0
  8 11  1  0  0  0  0
 11 12  1  0  0  0  0
 11 13  1  0  0  0  0
 11 14  1  0  0  0  0
  7 15  1  0  0  0  0
 15 16  1  0  0  0  0
 15 17  2  0  0  0  0
 17 18  1  0  0  0  0
 17 19  1  0  0  0  0
 19  4  2  0  0  0  0
 19 20  1  0  0  0  0
M  END
> <ChemID>
102361

> <source_casrn>
587-02-0

> <CAS>
587-02-0

> <SMILES>
CCc1cccc(N)c1

> <NAME>
m-Ethylaniline

> <preferred_name>
3-Ethylaniline

> <iupac>
3-ethylaniline

> <MPID>
21376

> <dsstox_substance_id>
DTXSID1051434

> <Canonical_QSARr>
CCc1cccc(N)c1

> <InChI_Code_QSARr>
InChI=1S/C8H11N/c1-2-7-4-3-5-8(9)6-7/h3-6H,2,9H2,1H3

> <InChI Key_QSARr>
AMKPQMFZCBTTAT-UHFFFAOYSA-N

> <Salt_Solvent>
?

> <BP>
214.0

$$$$
102366
  -INDIGO-08031720192D

 19 19  0  0  0  0  0  0  0  0999 V2000
    1.3856    0.8000    0.0000 O   0  0  0  0  0  0  0  0  0  0  0  0
    2.7713   -0.0000    0.0000 C   0  0  0  0  0  0  0  0  0  0  0  0
    2.7713   -1.6000    0.0000 C   0  0  0  0  0  0  0  0  0  0  0  0
    1.3856   -2.4000    0.0000 H   0  0  0  0  0  0  0  0  0  0  0  0
    4.1570   -2.4000    0.0000 C   0  0  0  0  0  0  0  0  0  0  0  0
    4.1570   -4.0000    0.0000 H   0  0  0  0  0  0  0  0  0  0  0  0
    5.5426   -1.6000    0.0000 C   0  0  0  0  0  0  0  0  0  0  0  0
    6.9282   -2.4000    0.0000 Br  0  0  0  0  0  0  0  0  0  0  0  0
    5.5426   -0.0000    0.0000 C   0  0  0  0  0  0  0  0  0  0  0  0
    6.9282    0.8000    0.0000 H   0  0  0  0  0  0  0  0  0  0  0  0
    4.1570    0.8000    0.0000 C   0  0  0  0  0  0  0  0  0  0  0  0
    4.1570    2.4000    0.0000 H   0  0  0  0  0  0  0  0  0  0  0  0
   -0.0000   -0.0000    0.0000 C   0  0  0  0  0  0  0  0  0  0  0  0
    0.6123   -1.4782    0.0000 H   0  0  0  0  0  0  0  0  0  0  0  0
   -0.6123   -1.4782    0.0000 H   0  0  0  0  0  0  0  0  0  0  0  0
   -1.3857    0.8000    0.0000 C   0  0  0  0  0  0  0  0  0  0  0  0
   -2.7713    1.6000    0.0000 H   0  0  0  0  0  0  0  0  0  0  0  0
   -2.7713   -0.0000    0.0000 H   0  0  0  0  0  0  0  0  0  0  0  0
   -1.3857    2.4000    0.0000 H   0  0  0  0  0  0  0  0  0  0  0  0
  1  2  1  0  0  0  0
  2  3  1  0  0  0  0
  3  4  1  0  0  0  0
  3  5  2  0  0  0  0
  5  6  1  0  0  0  0
  5  7  1  0  0  0  0
  7  8  1  0  0  0  0
  7  9  2  0  0  0  0
  9 10  1  0  0  0  0
  9 11  1  0  0  0  0
 11  2  2  0  0  0  0
 11 12  1  0  0  0  0
  1 13  1  0  0  0  0
 13 14  1  0  0  0  0
 13 15  1  0  0  0  0
 13 16  1  0  0  0  0
 16 17  1  0  0  0  0
 16 18  1  0  0  0  0
 16 19  1  0  0  0  0
M  END
> <ChemID>
102366

> <source_casrn>
588-96-5

> <CAS>
588-96-5

> <SMILES>
CCOc1ccc(Br)cc1

> <NAME>
Benzene, 1-bromo-4-ethoxy-

> <preferred_name>
Benzene, 1-bromo-4-ethoxy-

> <iupac>
1-bromo-4-ethoxybenzene

> <MPID>
21381

> <dsstox_substance_id>
DTXSID6060426

> <Canonical_QSARr>
CCOc1ccc(Br)cc1

> <InChI_Code_QSARr>
InChI=1S/C8H9BrO/c1-2-10-8-5-3-7(9)4-6-8/h3-6H,2H2,1H3

> <InChI Key_QSARr>
WVUYYXUATWMVIT-UHFFFAOYSA-N

> <Salt_Solvent>
?

> <BP>
231.0

$$$$
102370
  -INDIGO-08031720192D

 15 15  0  0  0  0  0  0  0  0999 V2000
   -4.8000   -0.0000    0.0000 Br  0  0  0  0  0  0  0  0  0  0  0  0
   -3.2000   -0.0000    0.0000 C   0  0  0  0  0  0  0  0  0  0  0  0
   -2.4001    1.3856    0.0000 C   0  0  0  0  0  0  0  0  0  0  0  0
   -3.2000    2.7713    0.0000 H   0  0  0  0  0  0  0  0  0  0  0  0
   -0.7999    1.3856    0.0000 C   0  0  0  0  0  0  0  0  0  0  0  0
    0.0000    2.7713    0.0000 H   0  0  0  0  0  0  0  0  0  0  0  0
    0.0000   -0.0000    0.0000 C   0  0  0  0  0  0  0  0  0  0  0  0
    1.6000   -0.0000    0.0000 C   0  0  0  0  0  0  0  0  0  0  0  0
    3.2000   -0.0000    0.0000 H   0  0  0  0  0  0  0  0  0  0  0  0
    2.4001   -1.3856    0.0000 H   0  0  0  0  0  0  0  0  0  0  0  0
    2.4001    1.3856    0.0000 Cl  0  0  0  0  0  0  0  0  0  0  0  0
   -0.7999   -1.3856    0.0000 C   0  0  0  0  0  0  0  0  0  0  0  0
    0.0000   -2.7713    0.0000 H   0  0  0  0  0  0  0  0  0  0  0  0
   -2.4001   -1.3856    0.0000 C   0  0  0  0  0  0  0  0  0  0  0  0
   -3.2000   -2.7713    0.0000 H   0  0  0  0  0  0  0  0  0  0  0  0
  1  2  1  0  0  0  0
  2  3  1  0  0  0  0
  3  4  1  0  0  0  0
  3  5  2  0  0  0  0
  5  6  1  0  0  0  0
  5  7  1  0  0  0  0
  7  8  1  0  0  0  0
  8  9  1  0  0  0  0
  8 10  1  0  0  0  0
  8 11  1  0  0  0  0
  7 12  2  0  0  0  0
 12 13  1  0  0  0  0
 12 14  1  0  0  0  0
 14  2  2  0  0  0  0
 14 15  1  0  0  0  0
M  END
> <ChemID>
102370

> <source_casrn>
589-17-3

> <CAS>
589-17-3

> <SMILES>
ClCc1ccc(Br)cc1

> <NAME>
p-Bromobenzyl chloride

> <preferred_name>
p-Bromobenzyl chloride

> <iupac>
1-Bromo-4-(chloromethyl)benzene

> <MPID>
21385

> <dsstox_substance_id>
DTXSID20207630

> <Canonical_QSARr>
ClCc1ccc(Br)cc1

> <InChI_Code_QSARr>
InChI=1S/C7H6BrCl/c8-7-3-1-6(5-9)2-4-7/h1-4H,5H2

> <InChI Key_QSARr>
BSIIGUGKOPPTPZ-UHFFFAOYSA-N

> <Salt_Solvent>
?

> <BP>
236.0

$$$$
102374
  -INDIGO-08031720192D

 19 18  0  0  0  0  0  0  0  0999 V2000
    4.1569    0.8000    0.0000 C   0  0  0  0  0  0  0  0  0  0  0  0
    5.5426    1.6000    0.0000 H   0  0  0  0  0  0  0  0  0  0  0  0
    5.5426    0.0000    0.0000 H   0  0  0  0  0  0  0  0  0  0  0  0
    4.1569    2.4000    0.0000 H   0  0  0  0  0  0  0  0  0  0  0  0
    2.7713    0.0000    0.0000 C   0  0  0  0  0  0  0  0  0  0  0  0
    2.1590   -1.4782    0.0000 H   0  0  0  0  0  0  0  0  0  0  0  0
    3.3836   -1.4782    0.0000 H   0  0  0  0  0  0  0  0  0  0  0  0
    1.3857    0.8000    0.0000 C   0  0  0  0  0  0  0  0  0  0  0  0
   -0.0001    0.0000    0.0000 C   0  0  0  0  0  0  0  0  0  0  0  0
   -0.6124   -1.4782    0.0000 H   0  0  0  0  0  0  0  0  0  0  0  0
    0.6122   -1.4782    0.0000 H   0  0  0  0  0  0  0  0  0  0  0  0
   -1.3857    0.8000    0.0000 C   0  0  0  0  0  0  0  0  0  0  0  0
   -0.7734    2.2782    0.0000 H   0  0  0  0  0  0  0  0  0  0  0  0
   -1.9980    2.2782    0.0000 H   0  0  0  0  0  0  0  0  0  0  0  0
   -2.7713    0.0000    0.0000 C   0  0  0  0  0  0  0  0  0  0  0  0
   -4.1569   -0.8000    0.0000 H   0  0  0  0  0  0  0  0  0  0  0  0
   -4.1569    0.8000    0.0000 H   0  0  0  0  0  0  0  0  0  0  0  0
   -2.7713   -1.6000    0.0000 H   0  0  0  0  0  0  0  0  0  0  0  0
    1.3857    2.4000    0.0000 O   0  0  0  0  0  0  0  0  0  0  0  0
  1  2  1  0  0  0  0
  1  3  1  0  0  0  0
  1  4  1  0  0  0  0
  1  5  1  0  0  0  0
  5  6  1  0  0  0  0
  5  7  1  0  0  0  0
  5  8  1  0  0  0  0
  8  9  1  0  0  0  0
  9 10  1  0  0  0  0
  9 11  1  0  0  0  0
  9 12  1  0  0  0  0
 12 13  1  0  0  0  0
 12 14  1  0  0  0  0
 12 15  1  0  0  0  0
 15 16  1  0  0  0  0
 15 17  1  0  0  0  0
 15 18  1  0  0  0  0
  8 19  2  0  0  0  0
M  END
> <ChemID>
102374

> <source_casrn>
589-38-8

> <CAS>
589-38-8

> <SMILES>
CCC(=O)CCC

> <NAME>
3-HEXANONE

> <preferred_name>
3-Hexanone

> <iupac>
hexan-3-one

> <MPID>
21389

> <dsstox_substance_id>
DTXSID2021608

> <Canonical_QSARr>
CCC(=O)CCC

> <InChI_Code_QSARr>
InChI=1S/C6H12O/c1-3-5-6(7)4-2/h3-5H2,1-2H3

> <InChI Key_QSARr>
PFCHFHIRKBAQGU-UHFFFAOYSA-N

> <Salt_Solvent>
?

> <BP>
123.5

$$$$
102378
  -INDIGO-08031720192D

 24 23  0  0  0  0  0  0  0  0999 V2000
    0.0001    0.0000    0.0000 C   0  0  0  0  0  0  0  0  0  0  0  0
    0.8000   -1.3857    0.0000 H   0  0  0  0  0  0  0  0  0  0  0  0
   -1.3856   -0.8000    0.0000 C   0  0  0  0  0  0  0  0  0  0  0  0
   -0.7734   -2.2782    0.0000 H   0  0  0  0  0  0  0  0  0  0  0  0
   -1.9979   -2.2782    0.0000 H   0  0  0  0  0  0  0  0  0  0  0  0
   -2.7712    0.0000    0.0000 C   0  0  0  0  0  0  0  0  0  0  0  0
   -3.3836    1.4782    0.0000 H   0  0  0  0  0  0  0  0  0  0  0  0
   -2.1589    1.4782    0.0000 H   0  0  0  0  0  0  0  0  0  0  0  0
   -4.1569   -0.8000    0.0000 C   0  0  0  0  0  0  0  0  0  0  0  0
   -5.5426   -1.6000    0.0000 H   0  0  0  0  0  0  0  0  0  0  0  0
   -5.5426    0.0000    0.0000 H   0  0  0  0  0  0  0  0  0  0  0  0
   -4.1569   -2.4000    0.0000 H   0  0  0  0  0  0  0  0  0  0  0  0
    1.3856    0.8000    0.0000 C   0  0  0  0  0  0  0  0  0  0  0  0
    0.7734    2.2782    0.0000 H   0  0  0  0  0  0  0  0  0  0  0  0
    1.9979    2.2782    0.0000 H   0  0  0  0  0  0  0  0  0  0  0  0
    2.7712    0.0000    0.0000 C   0  0  0  0  0  0  0  0  0  0  0  0
    3.3836   -1.4782    0.0000 H   0  0  0  0  0  0  0  0  0  0  0  0
    2.1589   -1.4782    0.0000 H   0  0  0  0  0  0  0  0  0  0  0  0
    4.1569    0.8000    0.0000 C   0  0  0  0  0  0  0  0  0  0  0  0
    5.5426    1.6000    0.0000 H   0  0  0  0  0  0  0  0  0  0  0  0
    5.5426    0.0000    0.0000 H   0  0  0  0  0  0  0  0  0  0  0  0
    4.1569    2.4000    0.0000 H   0  0  0  0  0  0  0  0  0  0  0  0
   -0.8000    1.3857    0.0000 O   0  0  0  0  0  0  0  0  0  0  0  0
   -0.2528    2.8891    0.0000 H   0  0  0  0  0  0  0  0  0  0  0  0
  1  2  1  0  0  0  0
  1  3  1  0  0  0  0
  3  4  1  0  0  0  0
  3  5  1  0  0  0  0
  3  6  1  0  0  0  0
  6  7  1  0  0  0  0
  6  8  1  0  0  0  0
  6  9  1  0  0  0  0
  9 10  1  0  0  0  0
  9 11  1  0  0  0  0
  9 12  1  0  0  0  0
  1 13  1  0  0  0  0
 13 14  1  0  0  0  0
 13 15  1  0  0  0  0
 13 16  1  0  0  0  0
 16 17  1  0  0  0  0
 16 18  1  0  0  0  0
 16 19  1  0  0  0  0
 19 20  1  0  0  0  0
 19 21  1  0  0  0  0
 19 22  1  0  0  0  0
  1 23  1  0  0  0  0
 23 24  1  0  0  0  0
M  END
> <ChemID>
102378

> <source_casrn>
589-55-9

> <CAS>
589-55-9

> <SMILES>
CCCC(O)CCC

> <NAME>
4-HEPTANOL

> <preferred_name>
4-Heptanol

> <iupac>
Heptan-4-ol

> <MPID>
21393

> <dsstox_substance_id>
DTXSID1060429

> <Canonical_QSARr>
CCCC(O)CCC

> <InChI_Code_QSARr>
InChI=1S/C7H16O/c1-3-5-7(8)6-4-2/h7-8H,3-6H2,1-2H3

> <InChI Key_QSARr>
YVBCULSIZWMTFY-UHFFFAOYSA-N

> <Salt_Solvent>
?

> <BP>
156.0

$$$$
102382
  -INDIGO-08031720192D

 25 24  0  0  0  0  0  0  0  0999 V2000
   -2.7712   -1.6000    0.0000 O   0  0  0  0  0  0  0  0  0  0  0  0
   -2.7712    0.0000    0.0000 C   0  0  0  0  0  0  0  0  0  0  0  0
   -1.3857    0.8000    0.0000 C   0  0  0  0  0  0  0  0  0  0  0  0
   -0.7733    2.2782    0.0000 H   0  0  0  0  0  0  0  0  0  0  0  0
   -1.9979    2.2782    0.0000 H   0  0  0  0  0  0  0  0  0  0  0  0
    0.0000    0.0000    0.0000 C   0  0  0  0  0  0  0  0  0  0  0  0
   -0.6124   -1.4782    0.0000 H   0  0  0  0  0  0  0  0  0  0  0  0
    0.6124   -1.4782    0.0000 H   0  0  0  0  0  0  0  0  0  0  0  0
    1.3857    0.8000    0.0000 C   0  0  0  0  0  0  0  0  0  0  0  0
    1.9979    2.2782    0.0000 H   0  0  0  0  0  0  0  0  0  0  0  0
    0.7733    2.2782    0.0000 H   0  0  0  0  0  0  0  0  0  0  0  0
    2.7712    0.0000    0.0000 C   0  0  0  0  0  0  0  0  0  0  0  0
    4.1569   -0.8000    0.0000 H   0  0  0  0  0  0  0  0  0  0  0  0
    4.1569    0.8000    0.0000 H   0  0  0  0  0  0  0  0  0  0  0  0
    2.7712   -1.6000    0.0000 H   0  0  0  0  0  0  0  0  0  0  0  0
   -4.1569    0.8000    0.0000 C   0  0  0  0  0  0  0  0  0  0  0  0
   -3.5446    2.2782    0.0000 H   0  0  0  0  0  0  0  0  0  0  0  0
   -4.7693    2.2782    0.0000 H   0  0  0  0  0  0  0  0  0  0  0  0
   -5.5426    0.0000    0.0000 C   0  0  0  0  0  0  0  0  0  0  0  0
   -6.1548   -1.4782    0.0000 H   0  0  0  0  0  0  0  0  0  0  0  0
   -4.9303   -1.4782    0.0000 H   0  0  0  0  0  0  0  0  0  0  0  0
   -6.9281    0.8000    0.0000 C   0  0  0  0  0  0  0  0  0  0  0  0
   -8.3138    1.6000    0.0000 H   0  0  0  0  0  0  0  0  0  0  0  0
   -8.3138    0.0000    0.0000 H   0  0  0  0  0  0  0  0  0  0  0  0
   -6.9281    2.4000    0.0000 H   0  0  0  0  0  0  0  0  0  0  0  0
  1  2  2  0  0  0  0
  2  3  1  0  0  0  0
  3  4  1  0  0  0  0
  3  5  1  0  0  0  0
  3  6  1  0  0  0  0
  6  7  1  0  0  0  0
  6  8  1  0  0  0  0
  6  9  1  0  0  0  0
  9 10  1  0  0  0  0
  9 11  1  0  0  0  0
  9 12  1  0  0  0  0
 12 13  1  0  0  0  0
 12 14  1  0  0  0  0
 12 15  1  0  0  0  0
  2 16  1  0  0  0  0
 16 17  1  0  0  0  0
 16 18  1  0  0  0  0
 16 19  1  0  0  0  0
 19 20  1  0  0  0  0
 19 21  1  0  0  0  0
 19 22  1  0  0  0  0
 22 23  1  0  0  0  0
 22 24  1  0  0  0  0
 22 25  1  0  0  0  0
M  END
> <ChemID>
102382

> <source_casrn>
589-63-9

> <CAS>
589-63-9

> <SMILES>
CCCC(=O)CCCC

> <NAME>
4-OCTANONE

> <preferred_name>
Octan-4-one

> <iupac>
Octan-4-one

> <MPID>
21397

> <dsstox_substance_id>
DTXSID40207637

> <Canonical_QSARr>
CCCC(=O)CCCC

> <InChI_Code_QSARr>
InChI=1S/C8H16O/c1-3-5-7-8(9)6-4-2/h3-7H2,1-2H3

> <InChI Key_QSARr>
YWXLSHOWXZUMSR-UHFFFAOYSA-N

> <Salt_Solvent>
?

> <BP>
163.0

$$$$
102386
  -INDIGO-08031720192D

 24 24  0  0  0  0  0  0  0  0999 V2000
    0.0000   -0.0000    0.0000 C   0  0  0  0  0  0  0  0  0  0  0  0
    0.5472   -1.5035    0.0000 H   0  0  0  0  0  0  0  0  0  0  0  0
    0.0000    1.6000    0.0000 C   0  0  0  0  0  0  0  0  0  0  0  0
    1.5757    1.3222    0.0000 H   0  0  0  0  0  0  0  0  0  0  0  0
    0.5472    3.1035    0.0000 H   0  0  0  0  0  0  0  0  0  0  0  0
   -1.3856    2.4000    0.0000 C   0  0  0  0  0  0  0  0  0  0  0  0
   -0.3572    3.6257    0.0000 H   0  0  0  0  0  0  0  0  0  0  0  0
   -2.4141    3.6257    0.0000 H   0  0  0  0  0  0  0  0  0  0  0  0
   -2.7713    1.6000    0.0000 C   0  0  0  0  0  0  0  0  0  0  0  0
   -3.3185    3.1035    0.0000 H   0  0  0  0  0  0  0  0  0  0  0  0
   -4.3470    1.8778    0.0000 C   0  0  0  0  0  0  0  0  0  0  0  0
   -5.9227    2.1556    0.0000 H   0  0  0  0  0  0  0  0  0  0  0  0
   -4.8942    3.3814    0.0000 H   0  0  0  0  0  0  0  0  0  0  0  0
   -5.3755    0.6522    0.0000 H   0  0  0  0  0  0  0  0  0  0  0  0
   -2.7713   -0.0000    0.0000 C   0  0  0  0  0  0  0  0  0  0  0  0
   -4.3470    0.2778    0.0000 H   0  0  0  0  0  0  0  0  0  0  0  0
   -3.3185   -1.5035    0.0000 H   0  0  0  0  0  0  0  0  0  0  0  0
   -1.3856   -0.8000    0.0000 C   0  0  0  0  0  0  0  0  0  0  0  0
   -2.4141   -2.0257    0.0000 H   0  0  0  0  0  0  0  0  0  0  0  0
   -0.3572   -2.0257    0.0000 H   0  0  0  0  0  0  0  0  0  0  0  0
    1.5757   -0.2778    0.0000 C   0  0  0  0  0  0  0  0  0  0  0  0
    3.1514   -0.5556    0.0000 H   0  0  0  0  0  0  0  0  0  0  0  0
    2.1229   -1.7814    0.0000 H   0  0  0  0  0  0  0  0  0  0  0  0
    2.6042    0.9478    0.0000 H   0  0  0  0  0  0  0  0  0  0  0  0
  1  2  1  0  0  0  0
  1  3  1  0  0  0  0
  3  4  1  0  0  0  0
  3  5  1  0  0  0  0
  3  6  1  0  0  0  0
  6  7  1  0  0  0  0
  6  8  1  0  0  0  0
  6  9  1  0  0  0  0
  9 10  1  0  0  0  0
  9 11  1  0  0  0  0
 11 12  1  0  0  0  0
 11 13  1  0  0  0  0
 11 14  1  0  0  0  0
  9 15  1  0  0  0  0
 15 16  1  0  0  0  0
 15 17  1  0  0  0  0
 15 18  1  0  0  0  0
 18  1  1  0  0  0  0
 18 19  1  0  0  0  0
 18 20  1  0  0  0  0
  1 21  1  0  0  0  0
 21 22  1  0  0  0  0
 21 23  1  0  0  0  0
 21 24  1  0  0  0  0
M  END
> <ChemID>
102386

> <source_casrn>
589-90-2

> <CAS>
589-90-2

> <SMILES>
CC1CCC(C)CC1

> <NAME>
1,4-DIMETHYLCYCLOHEXANE

> <preferred_name>
Cyclohexane, 1,4-dimethyl-

> <iupac>
1,4-Dimethylcyclohexane

> <MPID>
21401

> <dsstox_substance_id>
DTXSID5075284

> <Canonical_QSARr>
CC1CCC(C)CC1

> <InChI_Code_QSARr>
InChI=1S/C8H16/c1-7-3-5-8(2)6-4-7/h7-8H,3-6H2,1-2H3

> <InChI Key_QSARr>
QRMPKOFEUHIBNM-UHFFFAOYSA-N

> <Salt_Solvent>
?

> <BP>
120.0

$$$$
102390
  -INDIGO-08031720192D

 27 26  0  0  0  0  0  0  0  0999 V2000
   -1.0285    1.2257    0.0000 O   0  0  0  0  0  0  0  0  0  0  0  0
   -0.4812    2.7292    0.0000 H   0  0  0  0  0  0  0  0  0  0  0  0
    0.0000   -0.0000    0.0000 C   0  0  0  0  0  0  0  0  0  0  0  0
    0.8000   -1.3856    0.0000 H   0  0  0  0  0  0  0  0  0  0  0  0
    1.3857    0.8000    0.0000 C   0  0  0  0  0  0  0  0  0  0  0  0
    0.7733    2.2782    0.0000 H   0  0  0  0  0  0  0  0  0  0  0  0
    1.9979    2.2782    0.0000 H   0  0  0  0  0  0  0  0  0  0  0  0
    2.7712   -0.0000    0.0000 C   0  0  0  0  0  0  0  0  0  0  0  0
    3.3836   -1.4782    0.0000 H   0  0  0  0  0  0  0  0  0  0  0  0
    2.1590   -1.4782    0.0000 H   0  0  0  0  0  0  0  0  0  0  0  0
    4.1569    0.8000    0.0000 C   0  0  0  0  0  0  0  0  0  0  0  0
    3.5446    2.2782    0.0000 H   0  0  0  0  0  0  0  0  0  0  0  0
    4.7693    2.2782    0.0000 H   0  0  0  0  0  0  0  0  0  0  0  0
    5.5426   -0.0000    0.0000 C   0  0  0  0  0  0  0  0  0  0  0  0
    6.1548   -1.4782    0.0000 H   0  0  0  0  0  0  0  0  0  0  0  0
    4.9303   -1.4782    0.0000 H   0  0  0  0  0  0  0  0  0  0  0  0
    6.9281    0.8000    0.0000 C   0  0  0  0  0  0  0  0  0  0  0  0
    8.3138    1.6000    0.0000 H   0  0  0  0  0  0  0  0  0  0  0  0
    8.3138   -0.0000    0.0000 H   0  0  0  0  0  0  0  0  0  0  0  0
    6.9281    2.4000    0.0000 H   0  0  0  0  0  0  0  0  0  0  0  0
   -1.3857   -0.8000    0.0000 C   0  0  0  0  0  0  0  0  0  0  0  0
   -0.7733   -2.2782    0.0000 H   0  0  0  0  0  0  0  0  0  0  0  0
   -1.9979   -2.2782    0.0000 H   0  0  0  0  0  0  0  0  0  0  0  0
   -2.7712   -0.0000    0.0000 C   0  0  0  0  0  0  0  0  0  0  0  0
   -4.1569    0.8000    0.0000 H   0  0  0  0  0  0  0  0  0  0  0  0
   -4.1569   -0.8000    0.0000 H   0  0  0  0  0  0  0  0  0  0  0  0
   -2.7712    1.6000    0.0000 H   0  0  0  0  0  0  0  0  0  0  0  0
  1  2  1  0  0  0  0
  1  3  1  0  0  0  0
  3  4  1  0  0  0  0
  3  5  1  0  0  0  0
  5  6  1  0  0  0  0
  5  7  1  0  0  0  0
  5  8  1  0  0  0  0
  8  9  1  0  0  0  0
  8 10  1  0  0  0  0
  8 11  1  0  0  0  0
 11 12  1  0  0  0  0
 11 13  1  0  0  0  0
 11 14  1  0  0  0  0
 14 15  1  0  0  0  0
 14 16  1  0  0  0  0
 14 17  1  0  0  0  0
 17 18  1  0  0  0  0
 17 19  1  0  0  0  0
 17 20  1  0  0  0  0
  3 21  1  0  0  0  0
 21 22  1  0  0  0  0
 21 23  1  0  0  0  0
 21 24  1  0  0  0  0
 24 25  1  0  0  0  0
 24 26  1  0  0  0  0
 24 27  1  0  0  0  0
M  END
> <ChemID>
102390

> <source_casrn>
589-98-0

> <CAS>
22658-92-0

> <SMILES>
CCCCC[C@@H](O)CC

> <NAME>
3-OCTANOL

> <preferred_name>
(3S)-octan-3-ol

> <iupac>
C8H18O

> <MPID>
21405

> <dsstox_substance_id>
DTXSID40426427

> <Canonical_QSARr>
CCCCCC(O)CC

> <InChI_Code_QSARr>
InChI=1S/C8H18O/c1-3-5-6-7-8(9)4-2/h8-9H,3-7H2,1-2H3

> <InChI Key_QSARr>
NMRPBPVERJPACX-UHFFFAOYSA-N

> <Salt_Solvent>
?

> <BP>
171.0

$$$$
102396
  -INDIGO-08031720192D

 12 11  0  0  0  0  0  0  0  0999 V2000
    1.3856   -0.8000    0.0000 C   0  0  0  0  0  0  0  0  0  0  0  0
    2.7713   -1.6000    0.0000 H   0  0  0  0  0  0  0  0  0  0  0  0
    2.7713    0.0000    0.0000 H   0  0  0  0  0  0  0  0  0  0  0  0
    1.3856   -2.4000    0.0000 H   0  0  0  0  0  0  0  0  0  0  0  0
    0.0000    0.0000    0.0000 C   0  0  0  0  0  0  0  0  0  0  0  0
    0.0000    1.6000    0.0000 H   0  0  0  0  0  0  0  0  0  0  0  0
   -1.3856   -0.8000    0.0000 C   0  0  0  0  0  0  0  0  0  0  0  0
   -1.3856   -2.4000    0.0000 H   0  0  0  0  0  0  0  0  0  0  0  0
   -2.7713    0.0000    0.0000 C   0  0  0  0  0  0  0  0  0  0  0  0
   -4.1569    0.8000    0.0000 H   0  0  0  0  0  0  0  0  0  0  0  0
   -4.1569   -0.8000    0.0000 H   0  0  0  0  0  0  0  0  0  0  0  0
   -2.7713    1.6000    0.0000 H   0  0  0  0  0  0  0  0  0  0  0  0
  1  2  1  0  0  0  0
  1  3  1  0  0  0  0
  1  4  1  0  0  0  0
  1  5  1  0  0  0  0
  5  6  1  0  0  0  0
  5  7  2  0  0  0  0
  7  8  1  0  0  0  0
  7  9  1  0  0  0  0
  9 10  1  0  0  0  0
  9 11  1  0  0  0  0
  9 12  1  0  0  0  0
M  END
> <ChemID>
102396

> <source_casrn>
590-18-1|624-64-6

> <CAS>
590-18-1|624-64-6

> <SMILES>
C/C=C\C

> <NAME>
CIS-2-BUTENE, TRANS-2-BUTENE

> <preferred_name>
2-Butene, (2Z)-

> <iupac>
(2Z)-but-2-ene

> <MPID>
21411|21873

> <dsstox_substance_id>
DTXSID0027224|DTXSID7027255

> <Canonical_QSARr>
CC=CC

> <InChI_Code_QSARr>
InChI=1S/C4H8/c1-3-4-2/h3-4H,1-2H3/b4-3+

> <InChI Key_QSARr>
IAQRGUVFOMOMEM-ONEGZZNKSA-N

> <Salt_Solvent>
?

> <BP>
2.25

$$$$
102400
  -INDIGO-08031720192D

 21 20  0  0  0  0  0  0  0  0999 V2000
   -1.5036    0.5472    0.0000 C   0  0  0  0  0  0  0  0  0  0  0  0
   -1.1572    2.1093    0.0000 H   0  0  0  0  0  0  0  0  0  0  0  0
   -2.3632    1.8967    0.0000 H   0  0  0  0  0  0  0  0  0  0  0  0
   -0.0000    0.0000    0.0000 C   0  0  0  0  0  0  0  0  0  0  0  0
    1.3856   -0.8000    0.0000 C   0  0  0  0  0  0  0  0  0  0  0  0
    2.7713   -1.6000    0.0000 H   0  0  0  0  0  0  0  0  0  0  0  0
    2.7713    0.0000    0.0000 H   0  0  0  0  0  0  0  0  0  0  0  0
    1.3856   -2.4000    0.0000 H   0  0  0  0  0  0  0  0  0  0  0  0
    0.8000    1.3856    0.0000 C   0  0  0  0  0  0  0  0  0  0  0  0
    1.6000    2.7713    0.0000 H   0  0  0  0  0  0  0  0  0  0  0  0
   -0.0000    2.7713    0.0000 H   0  0  0  0  0  0  0  0  0  0  0  0
    2.4000    1.3856    0.0000 H   0  0  0  0  0  0  0  0  0  0  0  0
   -0.8000   -1.3856    0.0000 O   0  0  0  0  0  0  0  0  0  0  0  0
   -0.0000   -2.7713    0.0000 H   0  0  0  0  0  0  0  0  0  0  0  0
   -2.7291   -0.4813    0.0000 C   0  0  0  0  0  0  0  0  0  0  0  0
   -3.0755   -2.0433    0.0000 H   0  0  0  0  0  0  0  0  0  0  0  0
   -1.8695   -1.8306    0.0000 H   0  0  0  0  0  0  0  0  0  0  0  0
   -4.2327    0.0660    0.0000 C   0  0  0  0  0  0  0  0  0  0  0  0
   -5.7362    0.6132    0.0000 H   0  0  0  0  0  0  0  0  0  0  0  0
   -5.4584   -0.9625    0.0000 H   0  0  0  0  0  0  0  0  0  0  0  0
   -4.5105    1.6417    0.0000 H   0  0  0  0  0  0  0  0  0  0  0  0
  1  2  1  0  0  0  0
  1  3  1  0  0  0  0
  1  4  1  0  0  0  0
  4  5  1  0  0  0  0
  5  6  1  0  0  0  0
  5  7  1  0  0  0  0
  5  8  1  0  0  0  0
  4  9  1  0  0  0  0
  9 10  1  0  0  0  0
  9 11  1  0  0  0  0
  9 12  1  0  0  0  0
  4 13  1  0  0  0  0
 13 14  1  0  0  0  0
  1 15  1  0  0  0  0
 15 16  1  0  0  0  0
 15 17  1  0  0  0  0
 15 18  1  0  0  0  0
 18 19  1  0  0  0  0
 18 20  1  0  0  0  0
 18 21  1  0  0  0  0
M  END
> <ChemID>
102400

> <source_casrn>
590-36-3

> <CAS>
590-36-3

> <SMILES>
CCCC(C)(C)O

> <NAME>
2-METHYL-2-PENTANOL

> <preferred_name>
2-Methyl-2-pentanol

> <iupac>
2-Methylpentan-2-ol

> <MPID>
21415

> <dsstox_substance_id>
DTXSID4060440

> <Canonical_QSARr>
CCCC(C)(C)O

> <InChI_Code_QSARr>
InChI=1S/C6H14O/c1-4-5-6(2,3)7/h7H,4-5H2,1-3H3

> <InChI Key_QSARr>
WFRBDWRZVBPBDO-UHFFFAOYSA-N

> <Salt_Solvent>
?

> <BP>
121.1

$$$$
102404
  -INDIGO-08031720192D

 22 22  0  0  0  0  0  0  0  0999 V2000
    0.5472   -1.5035    0.0000 O   0  0  0  0  0  0  0  0  0  0  0  0
    2.1229   -1.7814    0.0000 H   0  0  0  0  0  0  0  0  0  0  0  0
   -0.0000   -0.0000    0.0000 C   0  0  0  0  0  0  0  0  0  0  0  0
   -0.0000    1.6000    0.0000 C   0  0  0  0  0  0  0  0  0  0  0  0
    1.5757    1.3222    0.0000 H   0  0  0  0  0  0  0  0  0  0  0  0
    0.5472    3.1035    0.0000 H   0  0  0  0  0  0  0  0  0  0  0  0
   -1.3856    2.4000    0.0000 C   0  0  0  0  0  0  0  0  0  0  0  0
   -0.3572    3.6257    0.0000 H   0  0  0  0  0  0  0  0  0  0  0  0
   -2.4141    3.6257    0.0000 H   0  0  0  0  0  0  0  0  0  0  0  0
   -2.7713    1.6000    0.0000 C   0  0  0  0  0  0  0  0  0  0  0  0
   -3.3185    3.1035    0.0000 H   0  0  0  0  0  0  0  0  0  0  0  0
   -4.3470    1.3222    0.0000 H   0  0  0  0  0  0  0  0  0  0  0  0
   -2.7713   -0.0000    0.0000 C   0  0  0  0  0  0  0  0  0  0  0  0
   -4.3470    0.2778    0.0000 H   0  0  0  0  0  0  0  0  0  0  0  0
   -3.3185   -1.5035    0.0000 H   0  0  0  0  0  0  0  0  0  0  0  0
   -1.3856   -0.8000    0.0000 C   0  0  0  0  0  0  0  0  0  0  0  0
   -2.4141   -2.0257    0.0000 H   0  0  0  0  0  0  0  0  0  0  0  0
   -0.3572   -2.0257    0.0000 H   0  0  0  0  0  0  0  0  0  0  0  0
    1.5757    0.2778    0.0000 C   0  0  0  0  0  0  0  0  0  0  0  0
    3.1514    0.5557    0.0000 H   0  0  0  0  0  0  0  0  0  0  0  0
    2.6041   -0.9478    0.0000 H   0  0  0  0  0  0  0  0  0  0  0  0
    2.6041    1.5035    0.0000 H   0  0  0  0  0  0  0  0  0  0  0  0
  1  2  1  0  0  0  0
  1  3  1  0  0  0  0
  3  4  1  0  0  0  0
  4  5  1  0  0  0  0
  4  6  1  0  0  0  0
  4  7  1  0  0  0  0
  7  8  1  0  0  0  0
  7  9  1  0  0  0  0
  7 10  1  0  0  0  0
 10 11  1  0  0  0  0
 10 12  1  0  0  0  0
 10 13  1  0  0  0  0
 13 14  1  0  0  0  0
 13 15  1  0  0  0  0
 13 16  1  0  0  0  0
 16  3  1  0  0  0  0
 16 17  1  0  0  0  0
 16 18  1  0  0  0  0
  3 19  1  0  0  0  0
 19 20  1  0  0  0  0
 19 21  1  0  0  0  0
 19 22  1  0  0  0  0
M  END
> <ChemID>
102404

> <source_casrn>
590-67-0

> <CAS>
590-67-0

> <SMILES>
CC1(O)CCCCC1

> <NAME>
1-METHYLCYCLOHEXANOL

> <preferred_name>
1-Methylcyclohexanol

> <iupac>
1-methylcyclohexan-1-ol

> <MPID>
21419

> <dsstox_substance_id>
DTXSID00207739

> <Canonical_QSARr>
CC1(O)CCCCC1

> <InChI_Code_QSARr>
InChI=1S/C7H14O/c1-7(8)5-3-2-4-6-7/h8H,2-6H2,1H3

> <InChI Key_QSARr>
VTBOTOBFGSVRMA-UHFFFAOYSA-N

> <Salt_Solvent>
?

> <BP>
155.0

$$$$
102408
  -INDIGO-08031720192D

 10  9  0  0  0  0  0  0  0  0999 V2000
    5.6001   -1.3856    0.0000 O   0  0  0  0  0  0  0  0  0  0  0  0
    4.8000    0.0000    0.0000 C   0  0  0  0  0  0  0  0  0  0  0  0
    5.6001    1.3856    0.0000 O   0  0  0  0  0  0  0  0  0  0  0  0
    7.2000    1.3856    0.0000 H   0  0  0  0  0  0  0  0  0  0  0  0
    3.2000    0.0000    0.0000 C   0  0  0  0  0  0  0  0  0  0  0  0
    1.6000   -0.0000    0.0000 C   0  0  0  0  0  0  0  0  0  0  0  0
   -0.0001   -0.0000    0.0000 C   0  0  0  0  0  0  0  0  0  0  0  0
   -1.6000   -0.0000    0.0000 H   0  0  0  0  0  0  0  0  0  0  0  0
   -0.8000    1.3856    0.0000 H   0  0  0  0  0  0  0  0  0  0  0  0
   -0.8000   -1.3856    0.0000 H   0  0  0  0  0  0  0  0  0  0  0  0
  1  2  2  0  0  0  0
  2  3  1  0  0  0  0
  3  4  1  0  0  0  0
  2  5  1  0  0  0  0
  5  6  3  0  0  0  0
  6  7  1  0  0  0  0
  7  8  1  0  0  0  0
  7  9  1  0  0  0  0
  7 10  1  0  0  0  0
M  END
> <ChemID>
102408

> <source_casrn>
590-93-2

> <CAS>
590-93-2

> <SMILES>
CC#CC(O)=O

> <NAME>
2-Butynoic acid

> <preferred_name>
2-Butynoic acid

> <iupac>
but-2-ynoic acid

> <MPID>
21423

> <dsstox_substance_id>
DTXSID4060444

> <Canonical_QSARr>
CC#CC(O)=O

> <InChI_Code_QSARr>
InChI=1S/C4H4O2/c1-2-3-4(5)6/h1H3,(H,5,6)

> <InChI Key_QSARr>
LUEHNHVFDCZTGL-UHFFFAOYSA-N

> <Salt_Solvent>
?

> <BP>
203.0

$$$$
102412
  -INDIGO-08031720192D

 14 14  0  0  0  0  0  0  0  0999 V2000
   -0.8000    1.3856    0.0000 C   0  0  0  0  0  0  0  0  0  0  0  0
    0.0000    2.7713    0.0000 H   0  0  0  0  0  0  0  0  0  0  0  0
    0.0000   -0.0000    0.0000 C   0  0  0  0  0  0  0  0  0  0  0  0
    1.6000   -0.0000    0.0000 N   0  0  0  0  0  0  0  0  0  0  0  0
    2.4000    1.3856    0.0000 H   0  0  0  0  0  0  0  0  0  0  0  0
    2.4000   -1.3856    0.0000 H   0  0  0  0  0  0  0  0  0  0  0  0
   -0.8000   -1.3856    0.0000 C   0  0  0  0  0  0  0  0  0  0  0  0
    0.0000   -2.7713    0.0000 H   0  0  0  0  0  0  0  0  0  0  0  0
   -2.4000   -1.3856    0.0000 C   0  0  0  0  0  0  0  0  0  0  0  0
   -3.2000   -2.7713    0.0000 H   0  0  0  0  0  0  0  0  0  0  0  0
   -3.2000   -0.0000    0.0000 C   0  0  0  0  0  0  0  0  0  0  0  0
   -4.8000   -0.0000    0.0000 H   0  0  0  0  0  0  0  0  0  0  0  0
   -2.4000    1.3856    0.0000 C   0  0  0  0  0  0  0  0  0  0  0  0
   -3.2000    2.7713    0.0000 Br  0  0  0  0  0  0  0  0  0  0  0  0
  1  2  1  0  0  0  0
  1  3  1  0  0  0  0
  3  4  1  0  0  0  0
  4  5  1  0  0  0  0
  4  6  1  0  0  0  0
  3  7  2  0  0  0  0
  7  8  1  0  0  0  0
  7  9  1  0  0  0  0
  9 10  1  0  0  0  0
  9 11  2  0  0  0  0
 11 12  1  0  0  0  0
 11 13  1  0  0  0  0
 13  1  2  0  0  0  0
 13 14  1  0  0  0  0
M  END
> <ChemID>
102412

> <source_casrn>
591-19-5

> <CAS>
591-19-5

> <SMILES>
Nc1cc(Br)ccc1

> <NAME>
M-BROMOANILINE

> <preferred_name>
m-Bromoaniline

> <iupac>
3-Bromoaniline

> <MPID>
21427

> <dsstox_substance_id>
DTXSID4060448

> <Canonical_QSARr>
Nc1cc(Br)ccc1

> <InChI_Code_QSARr>
InChI=1S/C6H6BrN/c7-5-2-1-3-6(8)4-5/h1-4H,8H2

> <InChI Key_QSARr>
DHYHYLGCQVVLOQ-UHFFFAOYSA-N

> <Salt_Solvent>
?

> <BP>
251.0

$$$$
102416
  -INDIGO-08031720192D

 22 22  0  0  0  0  0  0  0  0999 V2000
    2.7713    0.0000    0.0000 C   0  0  0  0  0  0  0  0  0  0  0  0
    3.3185    1.5035    0.0000 H   0  0  0  0  0  0  0  0  0  0  0  0
    1.3856    0.8000    0.0000 C   0  0  0  0  0  0  0  0  0  0  0  0
    2.4141    2.0257    0.0000 H   0  0  0  0  0  0  0  0  0  0  0  0
    0.3572    2.0257    0.0000 H   0  0  0  0  0  0  0  0  0  0  0  0
    0.0000    0.0000    0.0000 C   0  0  0  0  0  0  0  0  0  0  0  0
   -0.5472    1.5035    0.0000 H   0  0  0  0  0  0  0  0  0  0  0  0
   -1.5757    0.2778    0.0000 C   0  0  0  0  0  0  0  0  0  0  0  0
   -3.1514    0.5556    0.0000 H   0  0  0  0  0  0  0  0  0  0  0  0
   -2.6041   -0.9478    0.0000 H   0  0  0  0  0  0  0  0  0  0  0  0
   -2.1230    1.7814    0.0000 H   0  0  0  0  0  0  0  0  0  0  0  0
    0.0000   -1.6000    0.0000 C   0  0  0  0  0  0  0  0  0  0  0  0
   -1.5757   -1.3222    0.0000 H   0  0  0  0  0  0  0  0  0  0  0  0
   -0.5472   -3.1035    0.0000 H   0  0  0  0  0  0  0  0  0  0  0  0
    1.3856   -2.4000    0.0000 C   0  0  0  0  0  0  0  0  0  0  0  0
    0.3572   -3.6257    0.0000 H   0  0  0  0  0  0  0  0  0  0  0  0
    2.4141   -3.6257    0.0000 H   0  0  0  0  0  0  0  0  0  0  0  0
    2.7713   -1.6000    0.0000 C   0  0  0  0  0  0  0  0  0  0  0  0
    3.3185   -3.1035    0.0000 H   0  0  0  0  0  0  0  0  0  0  0  0
    4.3470   -1.3222    0.0000 H   0  0  0  0  0  0  0  0  0  0  0  0
    4.3470   -0.2778    0.0000 O   0  0  0  0  0  0  0  0  0  0  0  0
    5.3754    0.9478    0.0000 H   0  0  0  0  0  0  0  0  0  0  0  0
  1  2  1  0  0  0  0
  1  3  1  0  0  0  0
  3  4  1  0  0  0  0
  3  5  1  0  0  0  0
  3  6  1  0  0  0  0
  6  7  1  0  0  0  0
  6  8  1  0  0  0  0
  8  9  1  0  0  0  0
  8 10  1  0  0  0  0
  8 11  1  0  0  0  0
  6 12  1  0  0  0  0
 12 13  1  0  0  0  0
 12 14  1  0  0  0  0
 12 15  1  0  0  0  0
 15 16  1  0  0  0  0
 15 17  1  0  0  0  0
 15 18  1  0  0  0  0
 18  1  1  0  0  0  0
 18 19  1  0  0  0  0
 18 20  1  0  0  0  0
  1 21  1  0  0  0  0
 21 22  1  0  0  0  0
M  END
> <ChemID>
102416

> <source_casrn>
591-23-1

> <CAS>
591-23-1

> <SMILES>
CC1CC(O)CCC1

> <NAME>
3-METHYLCYCLOHEXANOL

> <preferred_name>


> <iupac>


> <MPID>
21431

> <dsstox_substance_id>
DTXSID80870642

> <Canonical_QSARr>
CC1CC(O)CCC1

> <InChI_Code_QSARr>
InChI=1S/C7H14O/c1-6-3-2-4-7(8)5-6/h6-8H,2-5H2,1H3

> <InChI Key_QSARr>
HTSABYAWKQAHBT-UHFFFAOYSA-N

> <Salt_Solvent>
?

> <BP>
163.0

$$$$
102420
  -INDIGO-08031720192D

 13 13  0  0  0  0  0  0  0  0999 V2000
   -0.0000   -0.0000    0.0000 C   0  0  0  0  0  0  0  0  0  0  0  0
    0.8000   -1.3857    0.0000 C   0  0  0  0  0  0  0  0  0  0  0  0
    2.4000   -1.3857    0.0000 H   0  0  0  0  0  0  0  0  0  0  0  0
   -0.0000   -2.7713    0.0000 C   0  0  0  0  0  0  0  0  0  0  0  0
    0.8000   -4.1569    0.0000 Cl  0  0  0  0  0  0  0  0  0  0  0  0
   -1.6000   -2.7713    0.0000 C   0  0  0  0  0  0  0  0  0  0  0  0
   -2.4000   -4.1569    0.0000 H   0  0  0  0  0  0  0  0  0  0  0  0
   -2.4000   -1.3856    0.0000 C   0  0  0  0  0  0  0  0  0  0  0  0
   -4.0000   -1.3856    0.0000 Cl  0  0  0  0  0  0  0  0  0  0  0  0
   -1.6000   -0.0000    0.0000 C   0  0  0  0  0  0  0  0  0  0  0  0
   -2.4000    1.3856    0.0000 H   0  0  0  0  0  0  0  0  0  0  0  0
    0.8000    1.3856    0.0000 O   0  0  0  0  0  0  0  0  0  0  0  0
    2.4000    1.3856    0.0000 H   0  0  0  0  0  0  0  0  0  0  0  0
  1  2  1  0  0  0  0
  2  3  1  0  0  0  0
  2  4  2  0  0  0  0
  4  5  1  0  0  0  0
  4  6  1  0  0  0  0
  6  7  1  0  0  0  0
  6  8  2  0  0  0  0
  8  9  1  0  0  0  0
  8 10  1  0  0  0  0
 10  1  2  0  0  0  0
 10 11  1  0  0  0  0
  1 12  1  0  0  0  0
 12 13  1  0  0  0  0
M  END
> <ChemID>
102420

> <source_casrn>
591-35-5

> <CAS>
591-35-5

> <SMILES>
Oc1cc(Cl)cc(Cl)c1

> <NAME>
3,5-DICHLOROPHENOL

> <preferred_name>
3,5-Dichlorophenol

> <iupac>
3,5-dichlorophenol

> <MPID>
21435

> <dsstox_substance_id>
DTXSID2025006

> <Canonical_QSARr>
Oc1cc(Cl)cc(Cl)c1

> <InChI_Code_QSARr>
InChI=1S/C6H4Cl2O/c7-4-1-5(8)3-6(9)2-4/h1-3,9H

> <InChI Key_QSARr>
VPOMSPZBQMDLTM-UHFFFAOYSA-N

> <Salt_Solvent>
?

> <BP>
233.0

$$$$
102424
  -INDIGO-08031720192D

 12 12  0  0  0  0  0  0  0  0999 V2000
   -0.0000   -0.0000    0.0000 C   0  0  0  0  0  0  0  0  0  0  0  0
    0.8000   -1.3857    0.0000 C   0  0  0  0  0  0  0  0  0  0  0  0
    2.4000   -1.3857    0.0000 H   0  0  0  0  0  0  0  0  0  0  0  0
   -0.0000   -2.7713    0.0000 C   0  0  0  0  0  0  0  0  0  0  0  0
    0.8000   -4.1569    0.0000 H   0  0  0  0  0  0  0  0  0  0  0  0
   -1.6000   -2.7713    0.0000 C   0  0  0  0  0  0  0  0  0  0  0  0
   -2.4000   -4.1569    0.0000 H   0  0  0  0  0  0  0  0  0  0  0  0
   -2.4000   -1.3856    0.0000 C   0  0  0  0  0  0  0  0  0  0  0  0
   -4.0000   -1.3856    0.0000 H   0  0  0  0  0  0  0  0  0  0  0  0
   -1.6000   -0.0000    0.0000 C   0  0  0  0  0  0  0  0  0  0  0  0
   -2.4000    1.3856    0.0000 H   0  0  0  0  0  0  0  0  0  0  0  0
    0.8000    1.3856    0.0000 I   0  0  0  0  0  0  0  0  0  0  0  0
  1  2  1  0  0  0  0
  2  3  1  0  0  0  0
  2  4  2  0  0  0  0
  4  5  1  0  0  0  0
  4  6  1  0  0  0  0
  6  7  1  0  0  0  0
  6  8  2  0  0  0  0
  8  9  1  0  0  0  0
  8 10  1  0  0  0  0
 10  1  2  0  0  0  0
 10 11  1  0  0  0  0
  1 12  1  0  0  0  0
M  END
> <ChemID>
102424

> <source_casrn>
591-50-4

> <CAS>
591-50-4

> <SMILES>
Ic1ccccc1

> <NAME>
IODOBENZENE

> <preferred_name>
Benzene, iodo-

> <iupac>
Iodobenzene

> <MPID>
21439

> <dsstox_substance_id>
DTXSID8060452

> <Canonical_QSARr>
Ic1ccccc1

> <InChI_Code_QSARr>
InChI=1S/C6H5I/c7-6-4-2-1-3-5-6/h1-5H

> <InChI Key_QSARr>
SNHMUERNLJLMHN-UHFFFAOYSA-N

> <Salt_Solvent>
?

> <BP>
188.4

$$$$
102428
  -INDIGO-08031720192D

 19 18  0  0  0  0  0  0  0  0999 V2000
    2.7713    0.0000    0.0000 C   0  0  0  0  0  0  0  0  0  0  0  0
    4.1569   -0.8000    0.0000 H   0  0  0  0  0  0  0  0  0  0  0  0
    4.1569    0.8000    0.0000 H   0  0  0  0  0  0  0  0  0  0  0  0
    2.7713   -1.6000    0.0000 H   0  0  0  0  0  0  0  0  0  0  0  0
    1.3857    0.8000    0.0000 C   0  0  0  0  0  0  0  0  0  0  0  0
    0.7734    2.2782    0.0000 H   0  0  0  0  0  0  0  0  0  0  0  0
    1.9980    2.2782    0.0000 H   0  0  0  0  0  0  0  0  0  0  0  0
    0.0001    0.0000    0.0000 C   0  0  0  0  0  0  0  0  0  0  0  0
    0.6124   -1.4782    0.0000 H   0  0  0  0  0  0  0  0  0  0  0  0
   -0.6122   -1.4782    0.0000 H   0  0  0  0  0  0  0  0  0  0  0  0
   -1.3857    0.8000    0.0000 C   0  0  0  0  0  0  0  0  0  0  0  0
   -1.9980    2.2782    0.0000 H   0  0  0  0  0  0  0  0  0  0  0  0
   -0.7734    2.2782    0.0000 H   0  0  0  0  0  0  0  0  0  0  0  0
   -2.7713    0.0000    0.0000 C   0  0  0  0  0  0  0  0  0  0  0  0
   -2.7713   -1.6000    0.0000 O   0  0  0  0  0  0  0  0  0  0  0  0
   -4.1569    0.8000    0.0000 C   0  0  0  0  0  0  0  0  0  0  0  0
   -5.5426    1.6000    0.0000 H   0  0  0  0  0  0  0  0  0  0  0  0
   -5.5426    0.0000    0.0000 H   0  0  0  0  0  0  0  0  0  0  0  0
   -4.1569    2.4000    0.0000 H   0  0  0  0  0  0  0  0  0  0  0  0
  1  2  1  0  0  0  0
  1  3  1  0  0  0  0
  1  4  1  0  0  0  0
  1  5  1  0  0  0  0
  5  6  1  0  0  0  0
  5  7  1  0  0  0  0
  5  8  1  0  0  0  0
  8  9  1  0  0  0  0
  8 10  1  0  0  0  0
  8 11  1  0  0  0  0
 11 12  1  0  0  0  0
 11 13  1  0  0  0  0
 11 14  1  0  0  0  0
 14 15  2  0  0  0  0
 14 16  1  0  0  0  0
 16 17  1  0  0  0  0
 16 18  1  0  0  0  0
 16 19  1  0  0  0  0
M  END
> <ChemID>
102428

> <source_casrn>
591-78-6

> <CAS>
591-78-6

> <SMILES>
CCCCC(C)=O

> <NAME>
2-HEXANONE

> <preferred_name>
2-Hexanone

> <iupac>
hexan-2-one

> <MPID>
21443

> <dsstox_substance_id>
DTXSID0022068

> <Canonical_QSARr>
CCCCC(C)=O

> <InChI_Code_QSARr>
InChI=1S/C6H12O/c1-3-4-5-6(2)7/h3-5H2,1-2H3

> <InChI Key_QSARr>
QQZOPKMRPOGIEB-UHFFFAOYSA-N

> <Salt_Solvent>
?

> <BP>
127.6

$$$$
102432
  -INDIGO-08031720192D

 13 12  0  0  0  0  0  0  0  0999 V2000
    0.0001    0.0000    0.0000 C   0  0  0  0  0  0  0  0  0  0  0  0
    0.6123   -1.4782    0.0000 H   0  0  0  0  0  0  0  0  0  0  0  0
   -0.6123   -1.4782    0.0000 H   0  0  0  0  0  0  0  0  0  0  0  0
   -1.3856    0.8000    0.0000 C   0  0  0  0  0  0  0  0  0  0  0  0
   -1.3856    2.4000    0.0000 H   0  0  0  0  0  0  0  0  0  0  0  0
   -2.7713    0.0000    0.0000 C   0  0  0  0  0  0  0  0  0  0  0  0
   -4.1569    0.8000    0.0000 H   0  0  0  0  0  0  0  0  0  0  0  0
   -2.7712   -1.6000    0.0000 H   0  0  0  0  0  0  0  0  0  0  0  0
    1.3856    0.8000    0.0000 C   0  0  0  0  0  0  0  0  0  0  0  0
    1.3856    2.4000    0.0000 H   0  0  0  0  0  0  0  0  0  0  0  0
    2.7713    0.0000    0.0000 C   0  0  0  0  0  0  0  0  0  0  0  0
    4.1569    0.8000    0.0000 H   0  0  0  0  0  0  0  0  0  0  0  0
    2.7713   -1.6000    0.0000 H   0  0  0  0  0  0  0  0  0  0  0  0
  1  2  1  0  0  0  0
  1  3  1  0  0  0  0
  1  4  1  0  0  0  0
  4  5  1  0  0  0  0
  4  6  2  0  0  0  0
  6  7  1  0  0  0  0
  6  8  1  0  0  0  0
  1  9  1  0  0  0  0
  9 10  1  0  0  0  0
  9 11  2  0  0  0  0
 11 12  1  0  0  0  0
 11 13  1  0  0  0  0
M  END
> <ChemID>
102432

> <source_casrn>
591-93-5

> <CAS>
591-93-5

> <SMILES>
C=CCC=C

> <NAME>
1,4-PENTADIENE

> <preferred_name>
1,4-Pentadiene

> <iupac>
Penta-1,4-diene

> <MPID>
21447

> <dsstox_substance_id>
DTXSID8060456

> <Canonical_QSARr>
C=CCC=C

> <InChI_Code_QSARr>
InChI=1S/C5H8/c1-3-5-4-2/h3-4H,1-2,5H2

> <InChI Key_QSARr>
QYZLKGVUSQXAMU-UHFFFAOYSA-N

> <Salt_Solvent>
?

> <BP>
26.0

$$$$
102436
  -INDIGO-08031720192D

 26 25  0  0  0  0  0  0  0  0999 V2000
   -0.0000    0.0000    0.0000 C   0  0  0  0  0  0  0  0  0  0  0  0
    0.7999   -1.3857    0.0000 H   0  0  0  0  0  0  0  0  0  0  0  0
    1.5035    0.5472    0.0000 C   0  0  0  0  0  0  0  0  0  0  0  0
    1.1572    2.1093    0.0000 H   0  0  0  0  0  0  0  0  0  0  0  0
    2.3631    1.8967    0.0000 H   0  0  0  0  0  0  0  0  0  0  0  0
    2.7292   -0.4812    0.0000 C   0  0  0  0  0  0  0  0  0  0  0  0
    3.0755   -2.0433    0.0000 H   0  0  0  0  0  0  0  0  0  0  0  0
    1.8696   -1.8307    0.0000 H   0  0  0  0  0  0  0  0  0  0  0  0
    4.2327    0.0660    0.0000 C   0  0  0  0  0  0  0  0  0  0  0  0
    3.4328    1.4517    0.0000 H   0  0  0  0  0  0  0  0  0  0  0  0
    5.6183    0.8660    0.0000 C   0  0  0  0  0  0  0  0  0  0  0  0
    7.0040    1.6660    0.0000 H   0  0  0  0  0  0  0  0  0  0  0  0
    7.0040    0.0660    0.0000 H   0  0  0  0  0  0  0  0  0  0  0  0
    5.6183    2.4660    0.0000 H   0  0  0  0  0  0  0  0  0  0  0  0
    5.0327   -1.3197    0.0000 C   0  0  0  0  0  0  0  0  0  0  0  0
    5.8328   -2.7053    0.0000 H   0  0  0  0  0  0  0  0  0  0  0  0
    4.2327   -2.7053    0.0000 H   0  0  0  0  0  0  0  0  0  0  0  0
    6.6327   -1.3197    0.0000 H   0  0  0  0  0  0  0  0  0  0  0  0
   -1.3856   -0.8000    0.0000 C   0  0  0  0  0  0  0  0  0  0  0  0
   -2.7713   -1.6000    0.0000 H   0  0  0  0  0  0  0  0  0  0  0  0
   -1.3856   -2.4000    0.0000 H   0  0  0  0  0  0  0  0  0  0  0  0
   -2.7713    0.0000    0.0000 H   0  0  0  0  0  0  0  0  0  0  0  0
   -0.8000    1.3857    0.0000 C   0  0  0  0  0  0  0  0  0  0  0  0
   -1.6001    2.7713    0.0000 H   0  0  0  0  0  0  0  0  0  0  0  0
   -0.0000    2.7713    0.0000 H   0  0  0  0  0  0  0  0  0  0  0  0
   -2.4000    1.3857    0.0000 H   0  0  0  0  0  0  0  0  0  0  0  0
  1  2  1  0  0  0  0
  1  3  1  0  0  0  0
  3  4  1  0  0  0  0
  3  5  1  0  0  0  0
  3  6  1  0  0  0  0
  6  7  1  0  0  0  0
  6  8  1  0  0  0  0
  6  9  1  0  0  0  0
  9 10  1  0  0  0  0
  9 11  1  0  0  0  0
 11 12  1  0  0  0  0
 11 13  1  0  0  0  0
 11 14  1  0  0  0  0
  9 15  1  0  0  0  0
 15 16  1  0  0  0  0
 15 17  1  0  0  0  0
 15 18  1  0  0  0  0
  1 19  1  0  0  0  0
 19 20  1  0  0  0  0
 19 21  1  0  0  0  0
 19 22  1  0  0  0  0
  1 23  1  0  0  0  0
 23 24  1  0  0  0  0
 23 25  1  0  0  0  0
 23 26  1  0  0  0  0
M  END
> <ChemID>
102436

> <source_casrn>
592-13-2

> <CAS>
592-13-2

> <SMILES>
CC(C)CCC(C)C

> <NAME>
2,5-DIMETHYLHEXANE

> <preferred_name>
2,5-Dimethylhexane

> <iupac>
2,5-Dimethylhexane

> <MPID>
21451

> <dsstox_substance_id>
DTXSID4073201

> <Canonical_QSARr>
CC(C)CCC(C)C

> <InChI_Code_QSARr>
InChI=1S/C8H18/c1-7(2)5-6-8(3)4/h7-8H,5-6H2,1-4H3

> <InChI Key_QSARr>
UWNADWZGEHDQAB-UHFFFAOYSA-N

> <Salt_Solvent>
?

> <BP>
109.1

$$$$
102440
  -INDIGO-08031720192D

 18 17  0  0  0  0  0  0  0  0999 V2000
    0.0001    0.0000    0.0000 C   0  0  0  0  0  0  0  0  0  0  0  0
    0.6124   -1.4782    0.0000 H   0  0  0  0  0  0  0  0  0  0  0  0
   -0.6122   -1.4782    0.0000 H   0  0  0  0  0  0  0  0  0  0  0  0
    1.3857    0.8000    0.0000 C   0  0  0  0  0  0  0  0  0  0  0  0
    0.7734    2.2782    0.0000 H   0  0  0  0  0  0  0  0  0  0  0  0
    1.9980    2.2782    0.0000 H   0  0  0  0  0  0  0  0  0  0  0  0
    2.7713    0.0000    0.0000 C   0  0  0  0  0  0  0  0  0  0  0  0
    4.1569   -0.8000    0.0000 H   0  0  0  0  0  0  0  0  0  0  0  0
    4.1569    0.8000    0.0000 H   0  0  0  0  0  0  0  0  0  0  0  0
    2.7713   -1.6000    0.0000 H   0  0  0  0  0  0  0  0  0  0  0  0
   -1.3857    0.8000    0.0000 C   0  0  0  0  0  0  0  0  0  0  0  0
   -1.9980    2.2782    0.0000 H   0  0  0  0  0  0  0  0  0  0  0  0
   -0.7734    2.2782    0.0000 H   0  0  0  0  0  0  0  0  0  0  0  0
   -2.7713    0.0000    0.0000 C   0  0  0  0  0  0  0  0  0  0  0  0
   -2.7713   -1.6000    0.0000 H   0  0  0  0  0  0  0  0  0  0  0  0
   -4.1569    0.8000    0.0000 C   0  0  0  0  0  0  0  0  0  0  0  0
   -5.5426    0.0000    0.0000 H   0  0  0  0  0  0  0  0  0  0  0  0
   -4.1569    2.4000    0.0000 H   0  0  0  0  0  0  0  0  0  0  0  0
  1  2  1  0  0  0  0
  1  3  1  0  0  0  0
  1  4  1  0  0  0  0
  4  5  1  0  0  0  0
  4  6  1  0  0  0  0
  4  7  1  0  0  0  0
  7  8  1  0  0  0  0
  7  9  1  0  0  0  0
  7 10  1  0  0  0  0
  1 11  1  0  0  0  0
 11 12  1  0  0  0  0
 11 13  1  0  0  0  0
 11 14  1  0  0  0  0
 14 15  1  0  0  0  0
 14 16  2  0  0  0  0
 16 17  1  0  0  0  0
 16 18  1  0  0  0  0
M  END
> <ChemID>
102440

> <source_casrn>
592-41-6

> <CAS>
592-41-6

> <SMILES>
CCCCC=C

> <NAME>
1-HEXENE

> <preferred_name>
1-Hexene

> <iupac>
hex-1-ene

> <MPID>
21455

> <dsstox_substance_id>
DTXSID4025402

> <Canonical_QSARr>
CCCCC=C

> <InChI_Code_QSARr>
InChI=1S/C6H12/c1-3-5-6-4-2/h3H,1,4-6H2,2H3

> <InChI Key_QSARr>
LIKMAJRDDDTEIG-UHFFFAOYSA-N

> <Salt_Solvent>
?

> <BP>
63.4

$$$$
102444
  -INDIGO-08031720192D

 16 15  0  0  0  0  0  0  0  0999 V2000
    2.7713    0.0000    0.0000 C   0  0  0  0  0  0  0  0  0  0  0  0
    4.1569    0.8000    0.0000 H   0  0  0  0  0  0  0  0  0  0  0  0
    4.1569   -0.8000    0.0000 H   0  0  0  0  0  0  0  0  0  0  0  0
    2.7713    1.6000    0.0000 H   0  0  0  0  0  0  0  0  0  0  0  0
    1.3857   -0.8000    0.0000 C   0  0  0  0  0  0  0  0  0  0  0  0
    1.3857   -2.4000    0.0000 H   0  0  0  0  0  0  0  0  0  0  0  0
    0.0001    0.0000    0.0000 C   0  0  0  0  0  0  0  0  0  0  0  0
    0.0001    1.6000    0.0000 H   0  0  0  0  0  0  0  0  0  0  0  0
   -1.3857   -0.8000    0.0000 C   0  0  0  0  0  0  0  0  0  0  0  0
   -1.3857   -2.4000    0.0000 H   0  0  0  0  0  0  0  0  0  0  0  0
   -2.7713    0.0000    0.0000 C   0  0  0  0  0  0  0  0  0  0  0  0
   -2.7713    1.6000    0.0000 H   0  0  0  0  0  0  0  0  0  0  0  0
   -4.1569   -0.8000    0.0000 C   0  0  0  0  0  0  0  0  0  0  0  0
   -5.5426   -1.6000    0.0000 H   0  0  0  0  0  0  0  0  0  0  0  0
   -5.5426    0.0000    0.0000 H   0  0  0  0  0  0  0  0  0  0  0  0
   -4.1569   -2.4000    0.0000 H   0  0  0  0  0  0  0  0  0  0  0  0
  1  2  1  0  0  0  0
  1  3  1  0  0  0  0
  1  4  1  0  0  0  0
  1  5  1  0  0  0  0
  5  6  1  0  0  0  0
  5  7  2  0  0  0  0
  7  8  1  0  0  0  0
  7  9  1  0  0  0  0
  9 10  1  0  0  0  0
  9 11  2  0  0  0  0
 11 12  1  0  0  0  0
 11 13  1  0  0  0  0
 13 14  1  0  0  0  0
 13 15  1  0  0  0  0
 13 16  1  0  0  0  0
M  END
> <ChemID>
102444

> <source_casrn>
592-46-1

> <CAS>
5194-51-4

> <SMILES>
C/C=C/C=C/C

> <NAME>
2,4-Hexadiene

> <preferred_name>
2,4-Hexadiene

> <iupac>
(2E,4E)-hexa-2,4-diene

> <MPID>
21459

> <dsstox_substance_id>
DTXSID10859501

> <Canonical_QSARr>
CC=CC=CC

> <InChI_Code_QSARr>
InChI=1S/C6H10/c1-3-5-6-4-2/h3-6H,1-2H3/b5-3+,6-4+

> <InChI Key_QSARr>
APPOKADJQUIAHP-GGWOSOGESA-N

> <Salt_Solvent>
?

> <BP>
80.0

$$$$
102448
  -INDIGO-08031720192D

 13 12  0  0  0  0  0  0  0  0999 V2000
   -2.7713    0.0000    0.0000 C   0  0  0  0  0  0  0  0  0  0  0  0
   -1.3856    0.8000    0.0000 C   0  0  0  0  0  0  0  0  0  0  0  0
   -0.7734    2.2782    0.0000 H   0  0  0  0  0  0  0  0  0  0  0  0
   -1.9979    2.2782    0.0000 H   0  0  0  0  0  0  0  0  0  0  0  0
    0.0001    0.0000    0.0000 C   0  0  0  0  0  0  0  0  0  0  0  0
   -0.6123   -1.4782    0.0000 H   0  0  0  0  0  0  0  0  0  0  0  0
    0.6123   -1.4782    0.0000 H   0  0  0  0  0  0  0  0  0  0  0  0
    1.3856    0.8000    0.0000 C   0  0  0  0  0  0  0  0  0  0  0  0
    1.3856    2.4000    0.0000 H   0  0  0  0  0  0  0  0  0  0  0  0
    2.7713    0.0000    0.0000 C   0  0  0  0  0  0  0  0  0  0  0  0
    4.1569    0.8000    0.0000 H   0  0  0  0  0  0  0  0  0  0  0  0
    2.7713   -1.6000    0.0000 H   0  0  0  0  0  0  0  0  0  0  0  0
   -4.1569   -0.8000    0.0000 N   0  0  0  0  0  0  0  0  0  0  0  0
  1  2  1  0  0  0  0
  2  3  1  0  0  0  0
  2  4  1  0  0  0  0
  2  5  1  0  0  0  0
  5  6  1  0  0  0  0
  5  7  1  0  0  0  0
  5  8  1  0  0  0  0
  8  9  1  0  0  0  0
  8 10  2  0  0  0  0
 10 11  1  0  0  0  0
 10 12  1  0  0  0  0
  1 13  3  0  0  0  0
M  END
> <ChemID>
102448

> <source_casrn>
592-51-8

> <CAS>
592-51-8

> <SMILES>
C=CCCC#N

> <NAME>
4-Pentenenitrile

> <preferred_name>
4-Pentenenitrile

> <iupac>
pent-4-enenitrile

> <MPID>
21463

> <dsstox_substance_id>
DTXSID0027228

> <Canonical_QSARr>
C=CCCC#N

> <InChI_Code_QSARr>
InChI=1S/C5H7N/c1-2-3-4-5-6/h2H,1,3-4H2

> <InChI Key_QSARr>
CFEYBLWMNFZOPB-UHFFFAOYSA-N

> <Salt_Solvent>
?

> <BP>
140.0

$$$$
102452
  -INDIGO-08031720192D

 21 20  0  0  0  0  0  0  0  0999 V2000
   -1.3856    0.8000    0.0000 C   0  0  0  0  0  0  0  0  0  0  0  0
   -0.7734    2.2782    0.0000 H   0  0  0  0  0  0  0  0  0  0  0  0
   -1.9979    2.2782    0.0000 H   0  0  0  0  0  0  0  0  0  0  0  0
   -0.0001    0.0000    0.0000 C   0  0  0  0  0  0  0  0  0  0  0  0
   -0.6122   -1.4782    0.0000 H   0  0  0  0  0  0  0  0  0  0  0  0
    0.6123   -1.4782    0.0000 H   0  0  0  0  0  0  0  0  0  0  0  0
    1.3856    0.8000    0.0000 C   0  0  0  0  0  0  0  0  0  0  0  0
    1.9979    2.2782    0.0000 H   0  0  0  0  0  0  0  0  0  0  0  0
    0.7733    2.2782    0.0000 H   0  0  0  0  0  0  0  0  0  0  0  0
    2.7713    0.0000    0.0000 C   0  0  0  0  0  0  0  0  0  0  0  0
    4.1569   -0.8000    0.0000 H   0  0  0  0  0  0  0  0  0  0  0  0
    4.1569    0.8000    0.0000 H   0  0  0  0  0  0  0  0  0  0  0  0
    2.7713   -1.6000    0.0000 H   0  0  0  0  0  0  0  0  0  0  0  0
   -2.7712    0.0000    0.0000 C   0  0  0  0  0  0  0  0  0  0  0  0
   -3.3835   -1.4782    0.0000 H   0  0  0  0  0  0  0  0  0  0  0  0
   -2.1591   -1.4782    0.0000 H   0  0  0  0  0  0  0  0  0  0  0  0
   -4.1569    0.8000    0.0000 C   0  0  0  0  0  0  0  0  0  0  0  0
   -4.1569    2.4000    0.0000 H   0  0  0  0  0  0  0  0  0  0  0  0
   -5.5425    0.0000    0.0000 C   0  0  0  0  0  0  0  0  0  0  0  0
   -6.9282    0.8000    0.0000 H   0  0  0  0  0  0  0  0  0  0  0  0
   -5.5425   -1.6000    0.0000 H   0  0  0  0  0  0  0  0  0  0  0  0
  1  2  1  0  0  0  0
  1  3  1  0  0  0  0
  1  4  1  0  0  0  0
  4  5  1  0  0  0  0
  4  6  1  0  0  0  0
  4  7  1  0  0  0  0
  7  8  1  0  0  0  0
  7  9  1  0  0  0  0
  7 10  1  0  0  0  0
 10 11  1  0  0  0  0
 10 12  1  0  0  0  0
 10 13  1  0  0  0  0
  1 14  1  0  0  0  0
 14 15  1  0  0  0  0
 14 16  1  0  0  0  0
 14 17  1  0  0  0  0
 17 18  1  0  0  0  0
 17 19  2  0  0  0  0
 19 20  1  0  0  0  0
 19 21  1  0  0  0  0
M  END
> <ChemID>
102452

> <source_casrn>
592-76-7

> <CAS>
592-76-7

> <SMILES>
CCCCCC=C

> <NAME>
1-HEPTENE

> <preferred_name>
1-Heptene

> <iupac>
hept-1-ene

> <MPID>
21467

> <dsstox_substance_id>
DTXSID2060466

> <Canonical_QSARr>
CCCCCC=C

> <InChI_Code_QSARr>
InChI=1S/C7H14/c1-3-5-7-6-4-2/h3H,1,4-7H2,2H3

> <InChI Key_QSARr>
ZGEGCLOFRBLKSE-UHFFFAOYSA-N

> <Salt_Solvent>
?

> <BP>
93.6

$$$$
102456
  -INDIGO-08031720192D

 19 19  0  0  0  0  0  0  0  0999 V2000
    0.0000   -0.0000    0.0000 C   0  0  0  0  0  0  0  0  0  0  0  0
    1.5955    0.1196    0.0000 H   0  0  0  0  0  0  0  0  0  0  0  0
    0.4716   -1.5290    0.0000 H   0  0  0  0  0  0  0  0  0  0  0  0
    0.2384    1.5821    0.0000 C   0  0  0  0  0  0  0  0  0  0  0  0
    1.8067    1.2651    0.0000 H   0  0  0  0  0  0  0  0  0  0  0  0
    1.1398    2.9041    0.0000 H   0  0  0  0  0  0  0  0  0  0  0  0
   -0.8498    2.7550    0.0000 C   0  0  0  0  0  0  0  0  0  0  0  0
    0.3759    3.7835    0.0000 H   0  0  0  0  0  0  0  0  0  0  0  0
   -1.3214    4.2839    0.0000 H   0  0  0  0  0  0  0  0  0  0  0  0
   -2.4454    2.6354    0.0000 C   0  0  0  0  0  0  0  0  0  0  0  0
   -2.4852    4.2350    0.0000 H   0  0  0  0  0  0  0  0  0  0  0  0
   -3.9347    3.2200    0.0000 H   0  0  0  0  0  0  0  0  0  0  0  0
   -3.3466    1.3134    0.0000 O   0  0  0  0  0  0  0  0  0  0  0  0
   -2.8751   -0.2155    0.0000 C   0  0  0  0  0  0  0  0  0  0  0  0
   -4.4706   -0.3351    0.0000 H   0  0  0  0  0  0  0  0  0  0  0  0
   -3.3846   -1.7322    0.0000 H   0  0  0  0  0  0  0  0  0  0  0  0
   -1.3856   -0.8000    0.0000 C   0  0  0  0  0  0  0  0  0  0  0  0
   -2.2869   -2.1220    0.0000 H   0  0  0  0  0  0  0  0  0  0  0  0
   -0.5176   -2.1440    0.0000 H   0  0  0  0  0  0  0  0  0  0  0  0
  1  2  1  0  0  0  0
  1  3  1  0  0  0  0
  1  4  1  0  0  0  0
  4  5  1  0  0  0  0
  4  6  1  0  0  0  0
  4  7  1  0  0  0  0
  7  8  1  0  0  0  0
  7  9  1  0  0  0  0
  7 10  1  0  0  0  0
 10 11  1  0  0  0  0
 10 12  1  0  0  0  0
 10 13  1  0  0  0  0
 13 14  1  0  0  0  0
 14 15  1  0  0  0  0
 14 16  1  0  0  0  0
 14 17  1  0  0  0  0
 17  1  1  0  0  0  0
 17 18  1  0  0  0  0
 17 19  1  0  0  0  0
M  END
> <ChemID>
102456

> <source_casrn>
592-90-5

> <CAS>
592-90-5

> <SMILES>
C1CCCCCO1

> <NAME>
OXEPANE

> <preferred_name>
Oxepane

> <iupac>
OXEPANE

> <MPID>
21471

> <dsstox_substance_id>
DTXSID1060471

> <Canonical_QSARr>
C1CCCCCO1

> <InChI_Code_QSARr>
InChI=1S/C6H12O/c1-2-4-6-7-5-3-1/h1-6H2

> <InChI Key_QSARr>
UHHKSVZZTYJVEG-UHFFFAOYSA-N

> <Salt_Solvent>
?

> <BP>
119.0

$$$$
102460
  -INDIGO-08031720192D

 83 82  0  0  0  0  0  0  0  0999 V2000
   -0.0003    0.0000    0.0000 C   0  0  0  0  0  0  0  0  0  0  0  0
    0.6124    1.4782    0.0000 H   0  0  0  0  0  0  0  0  0  0  0  0
   -0.6124    1.4782    0.0000 H   0  0  0  0  0  0  0  0  0  0  0  0
    1.3856   -0.8000    0.0000 C   0  0  0  0  0  0  0  0  0  0  0  0
    0.7735   -2.2782    0.0000 H   0  0  0  0  0  0  0  0  0  0  0  0
    1.9978   -2.2782    0.0000 H   0  0  0  0  0  0  0  0  0  0  0  0
    2.7715    0.0000    0.0000 C   0  0  0  0  0  0  0  0  0  0  0  0
    3.3837    1.4782    0.0000 H   0  0  0  0  0  0  0  0  0  0  0  0
    2.1588    1.4782    0.0000 H   0  0  0  0  0  0  0  0  0  0  0  0
    4.1569   -0.8000    0.0000 C   0  0  0  0  0  0  0  0  0  0  0  0
    3.5447   -2.2782    0.0000 H   0  0  0  0  0  0  0  0  0  0  0  0
    4.7690   -2.2782    0.0000 H   0  0  0  0  0  0  0  0  0  0  0  0
    5.5428    0.0000    0.0000 C   0  0  0  0  0  0  0  0  0  0  0  0
    6.1549    1.4782    0.0000 H   0  0  0  0  0  0  0  0  0  0  0  0
    4.9300    1.4782    0.0000 H   0  0  0  0  0  0  0  0  0  0  0  0
    6.9281   -0.8000    0.0000 C   0  0  0  0  0  0  0  0  0  0  0  0
    6.3160   -2.2782    0.0000 H   0  0  0  0  0  0  0  0  0  0  0  0
    7.5402   -2.2782    0.0000 H   0  0  0  0  0  0  0  0  0  0  0  0
    8.3140    0.0000    0.0000 C   0  0  0  0  0  0  0  0  0  0  0  0
    8.9262    1.4782    0.0000 H   0  0  0  0  0  0  0  0  0  0  0  0
    7.7013    1.4782    0.0000 H   0  0  0  0  0  0  0  0  0  0  0  0
    9.6993   -0.8000    0.0000 C   0  0  0  0  0  0  0  0  0  0  0  0
    9.0872   -2.2782    0.0000 H   0  0  0  0  0  0  0  0  0  0  0  0
   10.3115   -2.2782    0.0000 H   0  0  0  0  0  0  0  0  0  0  0  0
   11.0853    0.0000    0.0000 C   0  0  0  0  0  0  0  0  0  0  0  0
   11.6974    1.4782    0.0000 H   0  0  0  0  0  0  0  0  0  0  0  0
   10.4731    1.4782    0.0000 H   0  0  0  0  0  0  0  0  0  0  0  0
   12.4706   -0.8000    0.0000 C   0  0  0  0  0  0  0  0  0  0  0  0
   11.8584   -2.2782    0.0000 H   0  0  0  0  0  0  0  0  0  0  0  0
   13.0833   -2.2782    0.0000 H   0  0  0  0  0  0  0  0  0  0  0  0
   13.8565    0.0000    0.0000 C   0  0  0  0  0  0  0  0  0  0  0  0
   14.4686    1.4782    0.0000 H   0  0  0  0  0  0  0  0  0  0  0  0
   13.2443    1.4782    0.0000 H   0  0  0  0  0  0  0  0  0  0  0  0
   15.2418   -0.8000    0.0000 C   0  0  0  0  0  0  0  0  0  0  0  0
   14.6297   -2.2782    0.0000 H   0  0  0  0  0  0  0  0  0  0  0  0
   15.8546   -2.2782    0.0000 H   0  0  0  0  0  0  0  0  0  0  0  0
   16.6277    0.0000    0.0000 C   0  0  0  0  0  0  0  0  0  0  0  0
   17.2399    1.4782    0.0000 H   0  0  0  0  0  0  0  0  0  0  0  0
   16.0156    1.4782    0.0000 H   0  0  0  0  0  0  0  0  0  0  0  0
   18.0131   -0.8000    0.0000 C   0  0  0  0  0  0  0  0  0  0  0  0
   19.3990   -1.6000    0.0000 H   0  0  0  0  0  0  0  0  0  0  0  0
   19.3990    0.0000    0.0000 H   0  0  0  0  0  0  0  0  0  0  0  0
   18.0131   -2.4000    0.0000 H   0  0  0  0  0  0  0  0  0  0  0  0
   -1.3856   -0.8000    0.0000 C   0  0  0  0  0  0  0  0  0  0  0  0
   -1.9978   -2.2782    0.0000 H   0  0  0  0  0  0  0  0  0  0  0  0
   -0.7735   -2.2782    0.0000 H   0  0  0  0  0  0  0  0  0  0  0  0
   -2.7715    0.0000    0.0000 C   0  0  0  0  0  0  0  0  0  0  0  0
   -2.1588    1.4782    0.0000 H   0  0  0  0  0  0  0  0  0  0  0  0
   -3.3837    1.4782    0.0000 H   0  0  0  0  0  0  0  0  0  0  0  0
   -4.1569   -0.8000    0.0000 C   0  0  0  0  0  0  0  0  0  0  0  0
   -4.7690   -2.2782    0.0000 H   0  0  0  0  0  0  0  0  0  0  0  0
   -3.5447   -2.2782    0.0000 H   0  0  0  0  0  0  0  0  0  0  0  0
   -5.5428    0.0000    0.0000 C   0  0  0  0  0  0  0  0  0  0  0  0
   -4.9300    1.4782    0.0000 H   0  0  0  0  0  0  0  0  0  0  0  0
   -6.1549    1.4782    0.0000 H   0  0  0  0  0  0  0  0  0  0  0  0
   -6.9281   -0.8000    0.0000 C   0  0  0  0  0  0  0  0  0  0  0  0
   -7.5402   -2.2782    0.0000 H   0  0  0  0  0  0  0  0  0  0  0  0
   -6.3159   -2.2782    0.0000 H   0  0  0  0  0  0  0  0  0  0  0  0
   -8.3140    0.0000    0.0000 C   0  0  0  0  0  0  0  0  0  0  0  0
   -7.7013    1.4782    0.0000 H   0  0  0  0  0  0  0  0  0  0  0  0
   -8.9262    1.4782    0.0000 H   0  0  0  0  0  0  0  0  0  0  0  0
   -9.6993   -0.8000    0.0000 C   0  0  0  0  0  0  0  0  0  0  0  0
  -10.3115   -2.2782    0.0000 H   0  0  0  0  0  0  0  0  0  0  0  0
   -9.0872   -2.2782    0.0000 H   0  0  0  0  0  0  0  0  0  0  0  0
  -11.0853    0.0000    0.0000 C   0  0  0  0  0  0  0  0  0  0  0  0
  -10.4731    1.4782    0.0000 H   0  0  0  0  0  0  0  0  0  0  0  0
  -11.6974    1.4782    0.0000 H   0  0  0  0  0  0  0  0  0  0  0  0
  -12.4706   -0.8000    0.0000 C   0  0  0  0  0  0  0  0  0  0  0  0
  -13.0833   -2.2782    0.0000 H   0  0  0  0  0  0  0  0  0  0  0  0
  -11.8584   -2.2782    0.0000 H   0  0  0  0  0  0  0  0  0  0  0  0
  -13.8565    0.0000    0.0000 C   0  0  0  0  0  0  0  0  0  0  0  0
  -13.2443    1.4782    0.0000 H   0  0  0  0  0  0  0  0  0  0  0  0
  -14.4686    1.4782    0.0000 H   0  0  0  0  0  0  0  0  0  0  0  0
  -15.2418   -0.8000    0.0000 C   0  0  0  0  0  0  0  0  0  0  0  0
  -15.8546   -2.2782    0.0000 H   0  0  0  0  0  0  0  0  0  0  0  0
  -14.6297   -2.2782    0.0000 H   0  0  0  0  0  0  0  0  0  0  0  0
  -16.6277    0.0000    0.0000 C   0  0  0  0  0  0  0  0  0  0  0  0
  -16.0156    1.4782    0.0000 H   0  0  0  0  0  0  0  0  0  0  0  0
  -17.2399    1.4782    0.0000 H   0  0  0  0  0  0  0  0  0  0  0  0
  -18.0131   -0.8000    0.0000 C   0  0  0  0  0  0  0  0  0  0  0  0
  -19.3990   -1.6000    0.0000 H   0  0  0  0  0  0  0  0  0  0  0  0
  -19.3990    0.0000    0.0000 H   0  0  0  0  0  0  0  0  0  0  0  0
  -18.0131   -2.4000    0.0000 H   0  0  0  0  0  0  0  0  0  0  0  0
  1  2  1  0  0  0  0
  1  3  1  0  0  0  0
  1  4  1  0  0  0  0
  4  5  1  0  0  0  0
  4  6  1  0  0  0  0
  4  7  1  0  0  0  0
  7  8  1  0  0  0  0
  7  9  1  0  0  0  0
  7 10  1  0  0  0  0
 10 11  1  0  0  0  0
 10 12  1  0  0  0  0
 10 13  1  0  0  0  0
 13 14  1  0  0  0  0
 13 15  1  0  0  0  0
 13 16  1  0  0  0  0
 16 17  1  0  0  0  0
 16 18  1  0  0  0  0
 16 19  1  0  0  0  0
 19 20  1  0  0  0  0
 19 21  1  0  0  0  0
 19 22  1  0  0  0  0
 22 23  1  0  0  0  0
 22 24  1  0  0  0  0
 22 25  1  0  0  0  0
 25 26  1  0  0  0  0
 25 27  1  0  0  0  0
 25 28  1  0  0  0  0
 28 29  1  0  0  0  0
 28 30  1  0  0  0  0
 28 31  1  0  0  0  0
 31 32  1  0  0  0  0
 31 33  1  0  0  0  0
 31 34  1  0  0  0  0
 34 35  1  0  0  0  0
 34 36  1  0  0  0  0
 34 37  1  0  0  0  0
 37 38  1  0  0  0  0
 37 39  1  0  0  0  0
 37 40  1  0  0  0  0
 40 41  1  0  0  0  0
 40 42  1  0  0  0  0
 40 43  1  0  0  0  0
  1 44  1  0  0  0  0
 44 45  1  0  0  0  0
 44 46  1  0  0  0  0
 44 47  1  0  0  0  0
 47 48  1  0  0  0  0
 47 49  1  0  0  0  0
 47 50  1  0  0  0  0
 50 51  1  0  0  0  0
 50 52  1  0  0  0  0
 50 53  1  0  0  0  0
 53 54  1  0  0  0  0
 53 55  1  0  0  0  0
 53 56  1  0  0  0  0
 56 57  1  0  0  0  0
 56 58  1  0  0  0  0
 56 59  1  0  0  0  0
 59 60  1  0  0  0  0
 59 61  1  0  0  0  0
 59 62  1  0  0  0  0
 62 63  1  0  0  0  0
 62 64  1  0  0  0  0
 62 65  1  0  0  0  0
 65 66  1  0  0  0  0
 65 67  1  0  0  0  0
 65 68  1  0  0  0  0
 68 69  1  0  0  0  0
 68 70  1  0  0  0  0
 68 71  1  0  0  0  0
 71 72  1  0  0  0  0
 71 73  1  0  0  0  0
 71 74  1  0  0  0  0
 74 75  1  0  0  0  0
 74 76  1  0  0  0  0
 74 77  1  0  0  0  0
 77 78  1  0  0  0  0
 77 79  1  0  0  0  0
 77 80  1  0  0  0  0
 80 81  1  0  0  0  0
 80 82  1  0  0  0  0
 80 83  1  0  0  0  0
M  END
> <ChemID>
102460

> <source_casrn>
593-49-7

> <CAS>
593-49-7

> <SMILES>
CCCCCCCCCCCCCCCCCCCCCCCCCCC

> <NAME>
HEPTACOSANE

> <preferred_name>
Heptacosane

> <iupac>
Heptacosane

> <MPID>
21475

> <dsstox_substance_id>
DTXSID6058637

> <Canonical_QSARr>
CCCCCCCCCCCCCCCCCCCCCCCCCCC

> <InChI_Code_QSARr>
InChI=1S/C27H56/c1-3-5-7-9-11-13-15-17-19-21-23-25-27-26-24-22-20-18-16-14-12-10-8-6-4-2/h3-27H2,1-2H3

> <InChI Key_QSARr>
BJQWYEJQWHSSCJ-UHFFFAOYSA-N

> <Salt_Solvent>
?

> <BP>
442.0

$$$$
102465
  -INDIGO-08031720192D

  6  5  0  0  0  0  0  0  0  0999 V2000
   -0.0000    0.0000    0.0000 C   0  0  0  0  0  0  0  0  0  0  0  0
    0.8000    1.3856    0.0000 H   0  0  0  0  0  0  0  0  0  0  0  0
    0.8000   -1.3856    0.0000 H   0  0  0  0  0  0  0  0  0  0  0  0
   -1.6000    0.0000    0.0000 C   0  0  0  0  0  0  0  0  0  0  0  0
   -2.4000    1.3856    0.0000 H   0  0  0  0  0  0  0  0  0  0  0  0
   -2.4000   -1.3856    0.0000 Br  0  0  0  0  0  0  0  0  0  0  0  0
  1  2  1  0  0  0  0
  1  3  1  0  0  0  0
  1  4  2  0  0  0  0
  4  5  1  0  0  0  0
  4  6  1  0  0  0  0
M  END
> <ChemID>
102465

> <source_casrn>
593-60-2

> <CAS>
593-60-2

> <SMILES>
C=CBr

> <NAME>
BROMOETHENE

> <preferred_name>
Vinyl bromide

> <iupac>
bromoethene

> <MPID>
21479

> <dsstox_substance_id>
DTXSID8021432

> <Canonical_QSARr>
C=CBr

> <InChI_Code_QSARr>
InChI=1S/C2H3Br/c1-2-3/h2H,1H2

> <InChI Key_QSARr>
INLLPKCGLOXCIV-UHFFFAOYSA-N

> <Salt_Solvent>
?

> <BP>
15.8

$$$$
102469
  -INDIGO-08031720192D

  5  4  0  0  0  0  0  0  0  0999 V2000
   -0.8000   -1.3856    0.0000 I   0  0  0  0  0  0  0  0  0  0  0  0
    0.0000    0.0000    0.0000 C   0  0  0  0  0  0  0  0  0  0  0  0
    0.8000    1.3856    0.0000 H   0  0  0  0  0  0  0  0  0  0  0  0
   -1.3856    0.8000    0.0000 H   0  0  0  0  0  0  0  0  0  0  0  0
    1.3856   -0.8000    0.0000 Cl  0  0  0  0  0  0  0  0  0  0  0  0
  1  2  1  0  0  0  0
  2  3  1  0  0  0  0
  2  4  1  0  0  0  0
  2  5  1  0  0  0  0
M  END
> <ChemID>
102469

> <source_casrn>
593-71-5

> <CAS>
593-71-5

> <SMILES>
ClCI

> <NAME>
CHLOROIODOMETHANE

> <preferred_name>
Chloroiodomethane

> <iupac>


> <MPID>
21483

> <dsstox_substance_id>
DTXSID50208034

> <Canonical_QSARr>
ClCI

> <InChI_Code_QSARr>
InChI=1S/CH2ClI/c2-1-3/h1H2

> <InChI Key_QSARr>
PJGJQVRXEUVAFT-UHFFFAOYSA-N

> <Salt_Solvent>
?

> <BP>
109.0

$$$$
102474
  -INDIGO-08031720192D

 13 12  0  0  0  0  0  0  0  0999 V2000
    1.6000    0.0000    0.0000 C   0  0  0  0  0  0  0  0  0  0  0  0
    3.2000    0.0000    0.0000 H   0  0  0  0  0  0  0  0  0  0  0  0
    2.4000   -1.3856    0.0000 H   0  0  0  0  0  0  0  0  0  0  0  0
    2.4000    1.3856    0.0000 H   0  0  0  0  0  0  0  0  0  0  0  0
   -0.0000    0.0000    0.0000 B   0  0  0  0  0  0  0  0  0  0  0  0
   -0.8000    1.3856    0.0000 C   0  0  0  0  0  0  0  0  0  0  0  0
   -1.6000    2.7713    0.0000 H   0  0  0  0  0  0  0  0  0  0  0  0
   -2.4000    1.3856    0.0000 H   0  0  0  0  0  0  0  0  0  0  0  0
   -0.0000    2.7713    0.0000 H   0  0  0  0  0  0  0  0  0  0  0  0
   -0.8000   -1.3856    0.0000 C   0  0  0  0  0  0  0  0  0  0  0  0
   -1.6000   -2.7713    0.0000 H   0  0  0  0  0  0  0  0  0  0  0  0
   -0.0000   -2.7713    0.0000 H   0  0  0  0  0  0  0  0  0  0  0  0
   -2.4000   -1.3856    0.0000 H   0  0  0  0  0  0  0  0  0  0  0  0
  1  2  1  0  0  0  0
  1  3  1  0  0  0  0
  1  4  1  0  0  0  0
  1  5  1  0  0  0  0
  5  6  1  0  0  0  0
  6  7  1  0  0  0  0
  6  8  1  0  0  0  0
  6  9  1  0  0  0  0
  5 10  1  0  0  0  0
 10 11  1  0  0  0  0
 10 12  1  0  0  0  0
 10 13  1  0  0  0  0
M  END
> <ChemID>
102474

> <source_casrn>
593-90-8

> <CAS>
593-90-8

> <SMILES>
CB(C)C

> <NAME>
Trimethyl boron

> <preferred_name>
Trimethylborane

> <iupac>
Trimethylborane

> <MPID>
21487

> <dsstox_substance_id>
DTXSID90208038

> <Canonical_QSARr>
CB(C)C

> <InChI_Code_QSARr>
InChI=1S/C3H9B/c1-4(2)3/h1-3H3

> <InChI Key_QSARr>
WXRGABKACDFXMG-UHFFFAOYSA-N

> <Salt_Solvent>
?

> <BP>
-20.2

$$$$
102478
  -INDIGO-08031720192D

  8  7  0  0  0  0  0  0  0  0999 V2000
    0.8000    1.3856    0.0000 I   0  0  0  0  0  0  0  0  0  0  0  0
    0.0000    0.0000    0.0000 C   0  0  0  0  0  0  0  0  0  0  0  0
    1.6000   -0.0000    0.0000 H   0  0  0  0  0  0  0  0  0  0  0  0
    0.8000   -1.3856    0.0000 I   0  0  0  0  0  0  0  0  0  0  0  0
   -1.6000    0.0000    0.0000 C   0  0  0  0  0  0  0  0  0  0  0  0
   -3.2000    0.0000    0.0000 H   0  0  0  0  0  0  0  0  0  0  0  0
   -2.4000   -1.3856    0.0000 H   0  0  0  0  0  0  0  0  0  0  0  0
   -2.4000    1.3856    0.0000 H   0  0  0  0  0  0  0  0  0  0  0  0
  1  2  1  0  0  0  0
  2  3  1  0  0  0  0
  2  4  1  0  0  0  0
  2  5  1  0  0  0  0
  5  6  1  0  0  0  0
  5  7  1  0  0  0  0
  5  8  1  0  0  0  0
M  END
> <ChemID>
102478

> <source_casrn>
594-02-5

> <CAS>
594-02-5

> <SMILES>
CC(I)I

> <NAME>
1,1-diiodoethane

> <preferred_name>
1,1-Diiodoethane

> <iupac>
1,1-Diiodoethane

> <MPID>
21491

> <dsstox_substance_id>
DTXSID70208117

> <Canonical_QSARr>
CC(I)I

> <InChI_Code_QSARr>
InChI=1S/C2H4I2/c1-2(3)4/h2H,1H3

> <InChI Key_QSARr>
JNVXRQOSRUDXDY-UHFFFAOYSA-N

> <Salt_Solvent>
?

> <BP>
179.5

$$$$
102483
  -INDIGO-08031720192D

  5  4  0  0  0  0  0  0  0  0999 V2000
   -0.8000   -1.3856    0.0000 Br  0  0  0  0  0  0  0  0  0  0  0  0
    0.0000    0.0000    0.0000 C   0  0  0  0  0  0  0  0  0  0  0  0
    0.8000    1.3856    0.0000 Cl  0  0  0  0  0  0  0  0  0  0  0  0
   -1.3856    0.8000    0.0000 Br  0  0  0  0  0  0  0  0  0  0  0  0
    1.3856   -0.8000    0.0000 Br  0  0  0  0  0  0  0  0  0  0  0  0
  1  2  1  0  0  0  0
  2  3  1  0  0  0  0
  2  4  1  0  0  0  0
  2  5  1  0  0  0  0
M  END
> <ChemID>
102483

> <source_casrn>
594-15-0

> <CAS>
594-15-0

> <SMILES>
ClC(Br)(Br)Br

> <NAME>
tribromochloromethane

> <preferred_name>
Tribromochloromethane

> <iupac>
tribromo(chloro)methane

> <MPID>
21495

> <dsstox_substance_id>
DTXSID0024347

> <Canonical_QSARr>
ClC(Br)(Br)Br

> <InChI_Code_QSARr>
InChI=1S/CBr3Cl/c2-1(3,4)5

> <InChI Key_QSARr>
GKXZMEXQUWZGJK-UHFFFAOYSA-N

> <Salt_Solvent>
?

> <BP>
158.5

$$$$
102487
  -INDIGO-08031720192D

  5  4  0  0  0  0  0  0  0  0999 V2000
    0.0000    0.0000    0.0000 C   0  0  0  0  0  0  0  0  0  0  0  0
    0.8000    1.3856    0.0000 Cl  0  0  0  0  0  0  0  0  0  0  0  0
   -1.3856    0.8000    0.0000 Cl  0  0  0  0  0  0  0  0  0  0  0  0
    1.3856   -0.8000    0.0000 Cl  0  0  0  0  0  0  0  0  0  0  0  0
   -0.8000   -1.3856    0.0000 I   0  0  0  0  0  0  0  0  0  0  0  0
  1  2  1  0  0  0  0
  1  3  1  0  0  0  0
  1  4  1  0  0  0  0
  1  5  1  0  0  0  0
M  END
> <ChemID>
102487

> <source_casrn>
594-22-9

> <CAS>
NOCAS_870652

> <SMILES>
ClC(Cl)(Cl)I

> <NAME>
trichloroiodomethane

> <preferred_name>


> <iupac>


> <MPID>
21499

> <dsstox_substance_id>
DTXSID30870652

> <Canonical_QSARr>
ClC(Cl)(Cl)I

> <InChI_Code_QSARr>
InChI=1S/CCl3I/c2-1(3,4)5

> <InChI Key_QSARr>
SFLKZLQXODICBP-UHFFFAOYSA-N

> <Salt_Solvent>
?

> <BP>
142.0

$$$$
102494
  -INDIGO-08031720192D

  6  5  0  0  0  0  0  0  0  0999 V2000
    0.0000    0.0000    0.0000 C   0  0  0  0  0  0  0  0  0  0  0  0
    1.3856    0.8000    0.0000 Cl  0  0  0  0  0  0  0  0  0  0  0  0
    0.0000    1.6000    0.0000 Cl  0  0  0  0  0  0  0  0  0  0  0  0
    1.3856   -0.8000    0.0000 Cl  0  0  0  0  0  0  0  0  0  0  0  0
   -1.3856   -0.8000    0.0000 S   0  0  0  0  0  0  0  0  0  0  0  0
   -2.7713    0.0000    0.0000 Cl  0  0  0  0  0  0  0  0  0  0  0  0
  1  2  1  0  0  0  0
  1  3  1  0  0  0  0
  1  4  1  0  0  0  0
  1  5  1  0  0  0  0
  5  6  1  0  0  0  0
M  END
> <ChemID>
102494

> <source_casrn>
594-42-3

> <CAS>
594-42-3

> <SMILES>
ClSC(Cl)(Cl)Cl

> <NAME>
PERCHLOROMETHYL MERCAPTAN

> <preferred_name>
Perchloromethylmercaptan

> <iupac>
trichloro(chlorosulfanyl)methane

> <MPID>
21503

> <dsstox_substance_id>
DTXSID6025854

> <Canonical_QSARr>
ClSC(Cl)(Cl)Cl

> <InChI_Code_QSARr>
InChI=1S/CCl4S/c2-1(3,4)6-5

> <InChI Key_QSARr>
RYFZYYUIAZYQLC-UHFFFAOYSA-N

> <Salt_Solvent>
?

> <BP>
147.5

$$$$
102498
  -INDIGO-08031720192D

 15 14  0  0  0  0  0  0  0  0999 V2000
   -0.8000    1.3856    0.0000 C   0  0  0  0  0  0  0  0  0  0  0  0
    0.0000    2.7713    0.0000 O   0  0  0  0  0  0  0  0  0  0  0  0
   -2.4000    1.3856    0.0000 O   0  0  0  0  0  0  0  0  0  0  0  0
   -3.2000    2.7713    0.0000 H   0  0  0  0  0  0  0  0  0  0  0  0
    0.0000    0.0000    0.0000 C   0  0  0  0  0  0  0  0  0  0  0  0
    1.3857    0.8000    0.0000 C   0  0  0  0  0  0  0  0  0  0  0  0
    2.7713    1.6000    0.0000 H   0  0  0  0  0  0  0  0  0  0  0  0
    2.7713    0.0000    0.0000 H   0  0  0  0  0  0  0  0  0  0  0  0
    1.3857    2.4000    0.0000 H   0  0  0  0  0  0  0  0  0  0  0  0
   -1.3856   -0.8000    0.0000 C   0  0  0  0  0  0  0  0  0  0  0  0
   -2.7713   -1.6000    0.0000 H   0  0  0  0  0  0  0  0  0  0  0  0
   -1.3856   -2.4000    0.0000 H   0  0  0  0  0  0  0  0  0  0  0  0
   -2.7713    0.0000    0.0000 H   0  0  0  0  0  0  0  0  0  0  0  0
    0.8000   -1.3856    0.0000 O   0  0  0  0  0  0  0  0  0  0  0  0
    2.4000   -1.3856    0.0000 H   0  0  0  0  0  0  0  0  0  0  0  0
  1  2  2  0  0  0  0
  1  3  1  0  0  0  0
  3  4  1  0  0  0  0
  1  5  1  0  0  0  0
  5  6  1  0  0  0  0
  6  7  1  0  0  0  0
  6  8  1  0  0  0  0
  6  9  1  0  0  0  0
  5 10  1  0  0  0  0
 10 11  1  0  0  0  0
 10 12  1  0  0  0  0
 10 13  1  0  0  0  0
  5 14  1  0  0  0  0
 14 15  1  0  0  0  0
M  END
> <ChemID>
102498

> <source_casrn>
594-61-6

> <CAS>
594-61-6

> <SMILES>
CC(C)(O)C(O)=O

> <NAME>
A-HYDROXY-I-BUTYRIC ACID

> <preferred_name>
2-Hydroxyisobutyric acid

> <iupac>
2-hydroxy-2-methylpropanoic acid

> <MPID>
21507

> <dsstox_substance_id>
DTXSID4032954

> <Canonical_QSARr>
CC(C)(O)C(O)=O

> <InChI_Code_QSARr>
InChI=1S/C4H8O3/c1-4(2,7)3(5)6/h7H,1-2H3,(H,5,6)

> <InChI Key_QSARr>
BWLBGMIXKSTLSX-UHFFFAOYSA-N

> <Salt_Solvent>
?

> <BP>
212.0

$$$$
102502
  -INDIGO-08031720192D

 26 25  0  0  0  0  0  0  0  0999 V2000
    0.0000    0.0000    0.0000 C   0  0  0  0  0  0  0  0  0  0  0  0
    1.6000    0.0000    0.0000 C   0  0  0  0  0  0  0  0  0  0  0  0
    3.2000    0.0000    0.0000 C   0  0  0  0  0  0  0  0  0  0  0  0
    4.8000    0.0000    0.0000 H   0  0  0  0  0  0  0  0  0  0  0  0
    4.0001   -1.3857    0.0000 H   0  0  0  0  0  0  0  0  0  0  0  0
    4.0001    1.3857    0.0000 H   0  0  0  0  0  0  0  0  0  0  0  0
    1.8778   -1.5757    0.0000 C   0  0  0  0  0  0  0  0  0  0  0  0
    2.1557   -3.1514    0.0000 H   0  0  0  0  0  0  0  0  0  0  0  0
    3.3814   -2.1229    0.0000 H   0  0  0  0  0  0  0  0  0  0  0  0
    0.8494   -2.8014    0.0000 H   0  0  0  0  0  0  0  0  0  0  0  0
    1.8778    1.5757    0.0000 C   0  0  0  0  0  0  0  0  0  0  0  0
    2.1557    3.1514    0.0000 H   0  0  0  0  0  0  0  0  0  0  0  0
    3.3814    2.1229    0.0000 H   0  0  0  0  0  0  0  0  0  0  0  0
    0.8494    2.8014    0.0000 H   0  0  0  0  0  0  0  0  0  0  0  0
   -1.6000   -0.0000    0.0000 C   0  0  0  0  0  0  0  0  0  0  0  0
   -3.2000   -0.0000    0.0000 H   0  0  0  0  0  0  0  0  0  0  0  0
   -2.6285   -1.2256    0.0000 H   0  0  0  0  0  0  0  0  0  0  0  0
   -2.6285    1.2256    0.0000 H   0  0  0  0  0  0  0  0  0  0  0  0
    0.0000    1.6000    0.0000 C   0  0  0  0  0  0  0  0  0  0  0  0
   -1.3856    2.4000    0.0000 H   0  0  0  0  0  0  0  0  0  0  0  0
   -0.2778    3.1757    0.0000 H   0  0  0  0  0  0  0  0  0  0  0  0
   -1.5036    1.0527    0.0000 H   0  0  0  0  0  0  0  0  0  0  0  0
    0.0000   -1.6000    0.0000 C   0  0  0  0  0  0  0  0  0  0  0  0
   -1.3856   -2.4000    0.0000 H   0  0  0  0  0  0  0  0  0  0  0  0
   -0.2778   -3.1757    0.0000 H   0  0  0  0  0  0  0  0  0  0  0  0
   -1.5036   -1.0527    0.0000 H   0  0  0  0  0  0  0  0  0  0  0  0
  1  2  1  0  0  0  0
  2  3  1  0  0  0  0
  3  4  1  0  0  0  0
  3  5  1  0  0  0  0
  3  6  1  0  0  0  0
  2  7  1  0  0  0  0
  7  8  1  0  0  0  0
  7  9  1  0  0  0  0
  7 10  1  0  0  0  0
  2 11  1  0  0  0  0
 11 12  1  0  0  0  0
 11 13  1  0  0  0  0
 11 14  1  0  0  0  0
  1 15  1  0  0  0  0
 15 16  1  0  0  0  0
 15 17  1  0  0  0  0
 15 18  1  0  0  0  0
  1 19  1  0  0  0  0
 19 20  1  0  0  0  0
 19 21  1  0  0  0  0
 19 22  1  0  0  0  0
  1 23  1  0  0  0  0
 23 24  1  0  0  0  0
 23 25  1  0  0  0  0
 23 26  1  0  0  0  0
M  END
> <ChemID>
102502

> <source_casrn>
594-82-1

> <CAS>
594-82-1

> <SMILES>
CC(C)(C)C(C)(C)C

> <NAME>
2,2,3,3-TETRAMETHYLBUTANE

> <preferred_name>
Butane, 2,2,3,3-tetramethyl-

> <iupac>
2,2,3,3-Tetramethylbutane

> <MPID>
21511

> <dsstox_substance_id>
DTXSID9073204

> <Canonical_QSARr>
CC(C)(C)C(C)(C)C

> <InChI_Code_QSARr>
InChI=1S/C8H18/c1-7(2,3)8(4,5)6/h1-6H3

> <InChI Key_QSARr>
OMMLUKLXGSRPHK-UHFFFAOYSA-N

> <Salt_Solvent>
?

> <BP>
106.4

$$$$
102507
  -INDIGO-08031720192D

 24 23  0  0  0  0  0  0  0  0999 V2000
    1.8778   -1.5757    0.0000 C   0  0  0  0  0  0  0  0  0  0  0  0
    2.1557   -3.1514    0.0000 H   0  0  0  0  0  0  0  0  0  0  0  0
    3.3813   -2.1229    0.0000 H   0  0  0  0  0  0  0  0  0  0  0  0
    0.6522   -2.6042    0.0000 H   0  0  0  0  0  0  0  0  0  0  0  0
    1.6000    0.0000    0.0000 C   0  0  0  0  0  0  0  0  0  0  0  0
    1.3221    1.5757    0.0000 H   0  0  0  0  0  0  0  0  0  0  0  0
   -0.0000    0.0000    0.0000 C   0  0  0  0  0  0  0  0  0  0  0  0
   -1.6001    0.0000    0.0000 C   0  0  0  0  0  0  0  0  0  0  0  0
   -2.8693    0.9740    0.0000 H   0  0  0  0  0  0  0  0  0  0  0  0
   -1.8088    1.5863    0.0000 H   0  0  0  0  0  0  0  0  0  0  0  0
   -2.4000   -1.3857    0.0000 C   0  0  0  0  0  0  0  0  0  0  0  0
   -4.0000   -1.3857    0.0000 H   0  0  0  0  0  0  0  0  0  0  0  0
   -3.2000   -2.7713    0.0000 H   0  0  0  0  0  0  0  0  0  0  0  0
   -3.2000    0.0000    0.0000 H   0  0  0  0  0  0  0  0  0  0  0  0
   -0.0000   -1.6000    0.0000 O   0  0  0  0  0  0  0  0  0  0  0  0
   -1.3856   -2.4000    0.0000 H   0  0  0  0  0  0  0  0  0  0  0  0
   -0.0000    1.6000    0.0000 C   0  0  0  0  0  0  0  0  0  0  0  0
   -0.0000    3.2000    0.0000 H   0  0  0  0  0  0  0  0  0  0  0  0
   -1.2256    2.6285    0.0000 H   0  0  0  0  0  0  0  0  0  0  0  0
    1.2257    2.6285    0.0000 H   0  0  0  0  0  0  0  0  0  0  0  0
    3.1756    0.2778    0.0000 C   0  0  0  0  0  0  0  0  0  0  0  0
    4.7514    0.5556    0.0000 H   0  0  0  0  0  0  0  0  0  0  0  0
    4.2041   -0.9478    0.0000 H   0  0  0  0  0  0  0  0  0  0  0  0
    3.7229    1.7813    0.0000 H   0  0  0  0  0  0  0  0  0  0  0  0
  1  2  1  0  0  0  0
  1  3  1  0  0  0  0
  1  4  1  0  0  0  0
  1  5  1  0  0  0  0
  5  6  1  0  0  0  0
  5  7  1  0  0  0  0
  7  8  1  0  0  0  0
  8  9  1  0  0  0  0
  8 10  1  0  0  0  0
  8 11  1  0  0  0  0
 11 12  1  0  0  0  0
 11 13  1  0  0  0  0
 11 14  1  0  0  0  0
  7 15  1  0  0  0  0
 15 16  1  0  0  0  0
  7 17  1  0  0  0  0
 17 18  1  0  0  0  0
 17 19  1  0  0  0  0
 17 20  1  0  0  0  0
  5 21  1  0  0  0  0
 21 22  1  0  0  0  0
 21 23  1  0  0  0  0
 21 24  1  0  0  0  0
M  END
> <ChemID>
102507

> <source_casrn>
595-41-5

> <CAS>
NOCAS_870656

> <SMILES>
CCC(C)(O)C(C)C

> <NAME>
2,3-DIMETHYL-3-PENTANOL

> <preferred_name>


> <iupac>


> <MPID>
21515

> <dsstox_substance_id>
DTXSID70870656

> <Canonical_QSARr>
CCC(C)(O)C(C)C

> <InChI_Code_QSARr>
InChI=1S/C7H16O/c1-5-7(4,8)6(2)3/h6,8H,5H2,1-4H3

> <InChI Key_QSARr>
RFZHJHSNHYIRNE-UHFFFAOYSA-N

> <Salt_Solvent>
?

> <BP>
139.7

$$$$
102512
  -INDIGO-08031720192D

 27 26  0  0  0  0  0  0  0  0999 V2000
   -0.8000   -1.3856    0.0000 O   0  0  0  0  0  0  0  0  0  0  0  0
   -0.2527   -2.8891    0.0000 H   0  0  0  0  0  0  0  0  0  0  0  0
    0.0000    0.0000    0.0000 C   0  0  0  0  0  0  0  0  0  0  0  0
   -1.5035    0.5473    0.0000 C   0  0  0  0  0  0  0  0  0  0  0  0
   -0.7035    1.9328    0.0000 H   0  0  0  0  0  0  0  0  0  0  0  0
   -2.8891    1.3472    0.0000 C   0  0  0  0  0  0  0  0  0  0  0  0
   -4.2748    2.1472    0.0000 H   0  0  0  0  0  0  0  0  0  0  0  0
   -2.8891    2.9473    0.0000 H   0  0  0  0  0  0  0  0  0  0  0  0
   -4.2748    0.5473    0.0000 H   0  0  0  0  0  0  0  0  0  0  0  0
   -2.3035   -0.8384    0.0000 C   0  0  0  0  0  0  0  0  0  0  0  0
   -3.1035   -2.2241    0.0000 H   0  0  0  0  0  0  0  0  0  0  0  0
   -3.9035   -0.8384    0.0000 H   0  0  0  0  0  0  0  0  0  0  0  0
   -1.5035   -2.2241    0.0000 H   0  0  0  0  0  0  0  0  0  0  0  0
    1.3857   -0.8000    0.0000 C   0  0  0  0  0  0  0  0  0  0  0  0
    1.7319   -2.3621    0.0000 H   0  0  0  0  0  0  0  0  0  0  0  0
    0.5260   -2.1494    0.0000 H   0  0  0  0  0  0  0  0  0  0  0  0
    2.8892   -0.2527    0.0000 C   0  0  0  0  0  0  0  0  0  0  0  0
    4.1148   -1.2812    0.0000 H   0  0  0  0  0  0  0  0  0  0  0  0
    4.3927    0.2945    0.0000 H   0  0  0  0  0  0  0  0  0  0  0  0
    2.6113   -1.8285    0.0000 H   0  0  0  0  0  0  0  0  0  0  0  0
    0.8000    1.3857    0.0000 C   0  0  0  0  0  0  0  0  0  0  0  0
    2.2783    1.9979    0.0000 H   0  0  0  0  0  0  0  0  0  0  0  0
    2.2783    0.7734    0.0000 H   0  0  0  0  0  0  0  0  0  0  0  0
    0.0000    2.7713    0.0000 C   0  0  0  0  0  0  0  0  0  0  0  0
    0.8000    4.1569    0.0000 H   0  0  0  0  0  0  0  0  0  0  0  0
   -0.8000    4.1569    0.0000 H   0  0  0  0  0  0  0  0  0  0  0  0
    1.6001    2.7713    0.0000 H   0  0  0  0  0  0  0  0  0  0  0  0
  1  2  1  0  0  0  0
  1  3  1  0  0  0  0
  3  4  1  0  0  0  0
  4  5  1  0  0  0  0
  4  6  1  0  0  0  0
  6  7  1  0  0  0  0
  6  8  1  0  0  0  0
  6  9  1  0  0  0  0
  4 10  1  0  0  0  0
 10 11  1  0  0  0  0
 10 12  1  0  0  0  0
 10 13  1  0  0  0  0
  3 14  1  0  0  0  0
 14 15  1  0  0  0  0
 14 16  1  0  0  0  0
 14 17  1  0  0  0  0
 17 18  1  0  0  0  0
 17 19  1  0  0  0  0
 17 20  1  0  0  0  0
  3 21  1  0  0  0  0
 21 22  1  0  0  0  0
 21 23  1  0  0  0  0
 21 24  1  0  0  0  0
 24 25  1  0  0  0  0
 24 26  1  0  0  0  0
 24 27  1  0  0  0  0
M  END
> <ChemID>
102512

> <source_casrn>
597-05-7

> <CAS>
597-05-7

> <SMILES>
CC(C)C(O)(CC)CC

> <NAME>
3-PENTANOL, 3-ETHYL-2-METHYL-

> <preferred_name>
3-Ethyl-2-methyl-3-pentanol

> <iupac>
3-ethyl-2-methylpentan-3-ol

> <MPID>
21519

> <dsstox_substance_id>
DTXSID60208404

> <Canonical_QSARr>
CC(C)C(O)(CC)CC

> <InChI_Code_QSARr>
InChI=1S/C8H18O/c1-5-8(9,6-2)7(3)4/h7,9H,5-6H2,1-4H3

> <InChI Key_QSARr>
DMHIJUVUPKCGLJ-UHFFFAOYSA-N

> <Salt_Solvent>
?

> <BP>
160.0

$$$$
102516
  -INDIGO-08031720192D

 24 23  0  0  0  0  0  0  0  0999 V2000
   -0.0000    0.0000    0.0000 Si  0  0  0  0  0  0  0  0  0  0  0  0
    1.0284   -1.2257    0.0000 O   0  0  0  0  0  0  0  0  0  0  0  0
    0.4813   -2.7292    0.0000 H   0  0  0  0  0  0  0  0  0  0  0  0
   -1.3857   -0.8000    0.0000 C   0  0  0  0  0  0  0  0  0  0  0  0
   -1.7319   -2.3620    0.0000 H   0  0  0  0  0  0  0  0  0  0  0  0
   -0.5260   -2.1494    0.0000 H   0  0  0  0  0  0  0  0  0  0  0  0
   -2.8891   -0.2528    0.0000 C   0  0  0  0  0  0  0  0  0  0  0  0
   -4.1148   -1.2812    0.0000 H   0  0  0  0  0  0  0  0  0  0  0  0
   -4.3927    0.2945    0.0000 H   0  0  0  0  0  0  0  0  0  0  0  0
   -2.6113   -1.8285    0.0000 H   0  0  0  0  0  0  0  0  0  0  0  0
   -0.8000    1.3857    0.0000 C   0  0  0  0  0  0  0  0  0  0  0  0
   -2.2781    0.7734    0.0000 H   0  0  0  0  0  0  0  0  0  0  0  0
   -2.2781    1.9979    0.0000 H   0  0  0  0  0  0  0  0  0  0  0  0
   -0.0000    2.7713    0.0000 C   0  0  0  0  0  0  0  0  0  0  0  0
   -0.8000    4.1569    0.0000 H   0  0  0  0  0  0  0  0  0  0  0  0
    0.8001    4.1569    0.0000 H   0  0  0  0  0  0  0  0  0  0  0  0
   -1.6001    2.7713    0.0000 H   0  0  0  0  0  0  0  0  0  0  0  0
    1.5035    0.5473    0.0000 C   0  0  0  0  0  0  0  0  0  0  0  0
    1.1573    2.1093    0.0000 H   0  0  0  0  0  0  0  0  0  0  0  0
    2.3632    1.8967    0.0000 H   0  0  0  0  0  0  0  0  0  0  0  0
    2.7291   -0.4812    0.0000 C   0  0  0  0  0  0  0  0  0  0  0  0
    3.9548   -1.5097    0.0000 H   0  0  0  0  0  0  0  0  0  0  0  0
    4.2327    0.0660    0.0000 H   0  0  0  0  0  0  0  0  0  0  0  0
    2.4513   -2.0569    0.0000 H   0  0  0  0  0  0  0  0  0  0  0  0
  1  2  1  0  0  0  0
  2  3  1  0  0  0  0
  1  4  1  0  0  0  0
  4  5  1  0  0  0  0
  4  6  1  0  0  0  0
  4  7  1  0  0  0  0
  7  8  1  0  0  0  0
  7  9  1  0  0  0  0
  7 10  1  0  0  0  0
  1 11  1  0  0  0  0
 11 12  1  0  0  0  0
 11 13  1  0  0  0  0
 11 14  1  0  0  0  0
 14 15  1  0  0  0  0
 14 16  1  0  0  0  0
 14 17  1  0  0  0  0
  1 18  1  0  0  0  0
 18 19  1  0  0  0  0
 18 20  1  0  0  0  0
 18 21  1  0  0  0  0
 21 22  1  0  0  0  0
 21 23  1  0  0  0  0
 21 24  1  0  0  0  0
M  END
> <ChemID>
102516

> <source_casrn>
597-52-4

> <CAS>
597-52-4

> <SMILES>
CC[Si](O)(CC)CC

> <NAME>
Triethyl hydroxy silicon

> <preferred_name>
Silanol, triethyl-

> <iupac>
triethyl-hydroxysilane

> <MPID>
21523

> <dsstox_substance_id>
DTXSID4060498

> <Canonical_QSARr>
CC[Si](O)(CC)CC

> <InChI_Code_QSARr>
InChI=1S/C6H16OSi/c1-4-8(7,5-2)6-3/h7H,4-6H2,1-3H3

> <InChI Key_QSARr>
WVMSIBFANXCZKT-UHFFFAOYSA-N

> <Salt_Solvent>
?

> <BP>
154.0

$$$$
102521
  -INDIGO-08031720192D

 27 26  0  0  0  0  0  0  0  0999 V2000
    0.0000   -1.6000    0.0000 O   0  0  0  0  0  0  0  0  0  0  0  0
    1.3857   -2.4000    0.0000 H   0  0  0  0  0  0  0  0  0  0  0  0
    0.0000    0.0000    0.0000 C   0  0  0  0  0  0  0  0  0  0  0  0
    1.6000    0.0000    0.0000 C   0  0  0  0  0  0  0  0  0  0  0  0
    2.8693    0.9740    0.0000 H   0  0  0  0  0  0  0  0  0  0  0  0
    1.8089    1.5863    0.0000 H   0  0  0  0  0  0  0  0  0  0  0  0
    2.6285   -1.2256    0.0000 C   0  0  0  0  0  0  0  0  0  0  0  0
    3.9779   -0.3660    0.0000 H   0  0  0  0  0  0  0  0  0  0  0  0
    4.1905   -1.5719    0.0000 H   0  0  0  0  0  0  0  0  0  0  0  0
    2.3506   -2.8014    0.0000 C   0  0  0  0  0  0  0  0  0  0  0  0
    2.0727   -4.3771    0.0000 H   0  0  0  0  0  0  0  0  0  0  0  0
    0.8471   -3.3486    0.0000 H   0  0  0  0  0  0  0  0  0  0  0  0
    3.5762   -3.8298    0.0000 H   0  0  0  0  0  0  0  0  0  0  0  0
   -1.6000    0.0000    0.0000 C   0  0  0  0  0  0  0  0  0  0  0  0
   -1.8088    1.5863    0.0000 H   0  0  0  0  0  0  0  0  0  0  0  0
   -2.8694    0.9740    0.0000 H   0  0  0  0  0  0  0  0  0  0  0  0
   -2.4000   -1.3857    0.0000 C   0  0  0  0  0  0  0  0  0  0  0  0
   -2.1911   -2.9719    0.0000 H   0  0  0  0  0  0  0  0  0  0  0  0
   -1.1306   -2.3596    0.0000 H   0  0  0  0  0  0  0  0  0  0  0  0
   -4.0000   -1.3857    0.0000 C   0  0  0  0  0  0  0  0  0  0  0  0
   -5.6000   -1.3857    0.0000 H   0  0  0  0  0  0  0  0  0  0  0  0
   -4.8000   -2.7712    0.0000 H   0  0  0  0  0  0  0  0  0  0  0  0
   -4.8000    0.0000    0.0000 H   0  0  0  0  0  0  0  0  0  0  0  0
    0.0000    1.6000    0.0000 C   0  0  0  0  0  0  0  0  0  0  0  0
    0.0000    3.2000    0.0000 H   0  0  0  0  0  0  0  0  0  0  0  0
   -1.2257    2.6285    0.0000 H   0  0  0  0  0  0  0  0  0  0  0  0
    1.2257    2.6285    0.0000 H   0  0  0  0  0  0  0  0  0  0  0  0
  1  2  1  0  0  0  0
  1  3  1  0  0  0  0
  3  4  1  0  0  0  0
  4  5  1  0  0  0  0
  4  6  1  0  0  0  0
  4  7  1  0  0  0  0
  7  8  1  0  0  0  0
  7  9  1  0  0  0  0
  7 10  1  0  0  0  0
 10 11  1  0  0  0  0
 10 12  1  0  0  0  0
 10 13  1  0  0  0  0
  3 14  1  0  0  0  0
 14 15  1  0  0  0  0
 14 16  1  0  0  0  0
 14 17  1  0  0  0  0
 17 18  1  0  0  0  0
 17 19  1  0  0  0  0
 17 20  1  0  0  0  0
 20 21  1  0  0  0  0
 20 22  1  0  0  0  0
 20 23  1  0  0  0  0
  3 24  1  0  0  0  0
 24 25  1  0  0  0  0
 24 26  1  0  0  0  0
 24 27  1  0  0  0  0
M  END
> <ChemID>
102521

> <source_casrn>
598-01-6

> <CAS>
598-01-6

> <SMILES>
CC(O)(CCC)CCC

> <NAME>
4-HEPTANOL, 4-METHYL-

> <preferred_name>
4-Methyl-4-heptanol

> <iupac>
4-methylheptan-4-ol

> <MPID>
21527

> <dsstox_substance_id>
DTXSID60208525

> <Canonical_QSARr>
CC(O)(CCC)CCC

> <InChI_Code_QSARr>
InChI=1S/C8H18O/c1-4-6-8(3,9)7-5-2/h9H,4-7H2,1-3H3

> <InChI Key_QSARr>
IQXKGRKRIRMQCQ-UHFFFAOYSA-N

> <Salt_Solvent>
?

> <BP>
161.0

$$$$
102525
  -INDIGO-08031720192D

  6  5  0  0  0  0  0  0  0  0999 V2000
    0.0000    0.0000    0.0000 C   0  0  0  0  0  0  0  0  0  0  0  0
    1.6000    0.0000    0.0000 C   0  0  0  0  0  0  0  0  0  0  0  0
    2.4000    1.3856    0.0000 H   0  0  0  0  0  0  0  0  0  0  0  0
    2.4000   -1.3856    0.0000 Br  0  0  0  0  0  0  0  0  0  0  0  0
   -0.8000    1.3856    0.0000 Br  0  0  0  0  0  0  0  0  0  0  0  0
   -0.8000   -1.3856    0.0000 Br  0  0  0  0  0  0  0  0  0  0  0  0
  1  2  2  0  0  0  0
  2  3  1  0  0  0  0
  2  4  1  0  0  0  0
  1  5  1  0  0  0  0
  1  6  1  0  0  0  0
M  END
> <ChemID>
102525

> <source_casrn>
598-16-3

> <CAS>
598-16-3

> <SMILES>
BrC=C(Br)Br

> <NAME>
ETHENE, TRIBROMO-

> <preferred_name>
Tribromoethene

> <iupac>
1,1,2-tribromoethene

> <MPID>
21531

> <dsstox_substance_id>
DTXSID5044150

> <Canonical_QSARr>
BrC=C(Br)Br

> <InChI_Code_QSARr>
InChI=1S/C2HBr3/c3-1-2(4)5/h1H

> <InChI Key_QSARr>
OZVJKTHTULCNHB-UHFFFAOYSA-N

> <Salt_Solvent>
?

> <BP>
164.0

$$$$
102529
  -INDIGO-08031720192D

 13 12  0  0  0  0  0  0  0  0999 V2000
    0.0000    0.0000    0.0000 C   0  0  0  0  0  0  0  0  0  0  0  0
    1.3857   -0.8000    0.0000 H   0  0  0  0  0  0  0  0  0  0  0  0
    0.8000    1.3856    0.0000 C   0  0  0  0  0  0  0  0  0  0  0  0
    1.6000    2.7713    0.0000 H   0  0  0  0  0  0  0  0  0  0  0  0
    2.4000    1.3856    0.0000 H   0  0  0  0  0  0  0  0  0  0  0  0
    0.0000    2.7713    0.0000 H   0  0  0  0  0  0  0  0  0  0  0  0
   -0.8000   -1.3856    0.0000 C   0  0  0  0  0  0  0  0  0  0  0  0
   -1.6000   -2.7713    0.0000 H   0  0  0  0  0  0  0  0  0  0  0  0
    0.0000   -2.7713    0.0000 H   0  0  0  0  0  0  0  0  0  0  0  0
   -2.4000   -1.3856    0.0000 H   0  0  0  0  0  0  0  0  0  0  0  0
   -1.3857    0.8000    0.0000 C   0  0  0  0  0  0  0  0  0  0  0  0
   -2.7713    1.6000    0.0000 C   0  0  0  0  0  0  0  0  0  0  0  0
   -4.1569    2.4000    0.0000 H   0  0  0  0  0  0  0  0  0  0  0  0
  1  2  1  0  0  0  0
  1  3  1  0  0  0  0
  3  4  1  0  0  0  0
  3  5  1  0  0  0  0
  3  6  1  0  0  0  0
  1  7  1  0  0  0  0
  7  8  1  0  0  0  0
  7  9  1  0  0  0  0
  7 10  1  0  0  0  0
  1 11  1  0  0  0  0
 11 12  3  0  0  0  0
 12 13  1  0  0  0  0
M  END
> <ChemID>
102529

> <source_casrn>
598-23-2

> <CAS>
598-23-2

> <SMILES>
CC(C)C#C

> <NAME>
1-BUTYNE, 3-METHYL-

> <preferred_name>
3-Methylbut-1-yne

> <iupac>
3-Methylbut-1-yne

> <MPID>
21535

> <dsstox_substance_id>
DTXSID40208528

> <Canonical_QSARr>
CC(C)C#C

> <InChI_Code_QSARr>
InChI=1S/C5H8/c1-4-5(2)3/h1,5H,2-3H3

> <InChI Key_QSARr>
USCSRAJGJYMJFZ-UHFFFAOYSA-N

> <Salt_Solvent>
?

> <BP>
26.3

$$$$
102533
  -INDIGO-08031720192D

  9  8  0  0  0  0  0  0  0  0999 V2000
    1.6000    0.0000    0.0000 C   0  0  0  0  0  0  0  0  0  0  0  0
    3.2000    0.0000    0.0000 H   0  0  0  0  0  0  0  0  0  0  0  0
    2.4000   -1.3856    0.0000 Cl  0  0  0  0  0  0  0  0  0  0  0  0
    2.4000    1.3856    0.0000 Cl  0  0  0  0  0  0  0  0  0  0  0  0
   -0.0000    0.0000    0.0000 C   0  0  0  0  0  0  0  0  0  0  0  0
   -0.2089   -1.5863    0.0000 H   0  0  0  0  0  0  0  0  0  0  0  0
   -1.2694   -0.9740    0.0000 H   0  0  0  0  0  0  0  0  0  0  0  0
   -0.8000    1.3856    0.0000 O   0  0  0  0  0  0  0  0  0  0  0  0
   -2.4000    1.3856    0.0000 H   0  0  0  0  0  0  0  0  0  0  0  0
  1  2  1  0  0  0  0
  1  3  1  0  0  0  0
  1  4  1  0  0  0  0
  1  5  1  0  0  0  0
  5  6  1  0  0  0  0
  5  7  1  0  0  0  0
  5  8  1  0  0  0  0
  8  9  1  0  0  0  0
M  END
> <ChemID>
102533

> <source_casrn>
598-38-9

> <CAS>
598-38-9

> <SMILES>
OCC(Cl)Cl

> <NAME>
2,2-DICHLOROETHANOL

> <preferred_name>
2,2-Dichloroethanol

> <iupac>
2,2-dichloroethanol

> <MPID>
21539

> <dsstox_substance_id>
DTXSID4024989

> <Canonical_QSARr>
OCC(Cl)Cl

> <InChI_Code_QSARr>
InChI=1S/C2H4Cl2O/c3-2(4)1-5/h2,5H,1H2

> <InChI Key_QSARr>
IDJOCJAIQSKSOP-UHFFFAOYSA-N

> <Salt_Solvent>
?

> <BP>
146.0

$$$$
102537
  -INDIGO-08031720192D

  8  7  0  0  0  0  0  0  0  0999 V2000
   -2.7713    0.0000    0.0000 N   0  0  0  0  0  0  0  0  0  0  0  0
   -1.3856   -0.8000    0.0000 O   0  0  0  0  0  0  0  0  0  0  0  0
   -0.0000    0.0000    0.0000 C   0  0  0  0  0  0  0  0  0  0  0  0
    1.3856    0.8000    0.0000 H   0  0  0  0  0  0  0  0  0  0  0  0
   -0.0000    1.6000    0.0000 H   0  0  0  0  0  0  0  0  0  0  0  0
    1.3856   -0.8000    0.0000 H   0  0  0  0  0  0  0  0  0  0  0  0
   -4.1569   -0.8000    0.0000 O   0  0  0  0  0  0  0  0  0  0  0  0
   -2.7713    1.6000    0.0000 O   0  0  0  0  0  0  0  0  0  0  0  0
  1  2  1  0  0  0  0
  2  3  1  0  0  0  0
  3  4  1  0  0  0  0
  3  5  1  0  0  0  0
  3  6  1  0  0  0  0
  1  7  2  0  0  0  0
  1  8  1  0  0  0  0
M  CHG  2   1   1   8  -1
M  END
> <ChemID>
102537

> <source_casrn>
598-58-3

> <CAS>
598-58-3

> <SMILES>
CO[N+]([O-])=O

> <NAME>
METHYLNITRATE

> <preferred_name>
Methyl nitrate

> <iupac>
METHYL NITRATE

> <MPID>
21543

> <dsstox_substance_id>
DTXSID4073205

> <Canonical_QSARr>
CO[N+]([O-])=O

> <InChI_Code_QSARr>
InChI=1S/CH3NO3/c1-5-2(3)4/h1H3

> <InChI Key_QSARr>
LRMHVVPPGGOAJQ-UHFFFAOYSA-N

> <Salt_Solvent>
?

> <BP>
64.6

$$$$
102541
  -INDIGO-08031720192D

 19 18  0  0  0  0  0  0  0  0999 V2000
    0.8000    1.3856    0.0000 C   0  0  0  0  0  0  0  0  0  0  0  0
    1.6000    2.7713    0.0000 H   0  0  0  0  0  0  0  0  0  0  0  0
    2.4001    1.3856    0.0000 H   0  0  0  0  0  0  0  0  0  0  0  0
    0.0000    2.7713    0.0000 H   0  0  0  0  0  0  0  0  0  0  0  0
    0.0000    0.0000    0.0000 C   0  0  0  0  0  0  0  0  0  0  0  0
   -0.8000   -1.3856    0.0000 H   0  0  0  0  0  0  0  0  0  0  0  0
    1.3856   -0.8000    0.0000 C   0  0  0  0  0  0  0  0  0  0  0  0
    2.7713   -1.6000    0.0000 H   0  0  0  0  0  0  0  0  0  0  0  0
    1.3856   -2.4000    0.0000 H   0  0  0  0  0  0  0  0  0  0  0  0
    2.7713    0.0000    0.0000 H   0  0  0  0  0  0  0  0  0  0  0  0
   -1.5035    0.5472    0.0000 C   0  0  0  0  0  0  0  0  0  0  0  0
   -0.9562    2.0508    0.0000 H   0  0  0  0  0  0  0  0  0  0  0  0
   -3.0071    1.0945    0.0000 C   0  0  0  0  0  0  0  0  0  0  0  0
   -4.5105    1.6417    0.0000 H   0  0  0  0  0  0  0  0  0  0  0  0
   -4.2327    0.0660    0.0000 H   0  0  0  0  0  0  0  0  0  0  0  0
   -3.2848    2.6701    0.0000 H   0  0  0  0  0  0  0  0  0  0  0  0
   -2.0507   -0.9563    0.0000 N   0  0  0  0  0  0  0  0  0  0  0  0
   -3.6264   -1.2341    0.0000 H   0  0  0  0  0  0  0  0  0  0  0  0
   -1.2508   -2.3419    0.0000 H   0  0  0  0  0  0  0  0  0  0  0  0
  1  2  1  0  0  0  0
  1  3  1  0  0  0  0
  1  4  1  0  0  0  0
  1  5  1  0  0  0  0
  5  6  1  0  0  0  0
  5  7  1  0  0  0  0
  7  8  1  0  0  0  0
  7  9  1  0  0  0  0
  7 10  1  0  0  0  0
  5 11  1  0  0  0  0
 11 12  1  0  0  0  0
 11 13  1  0  0  0  0
 13 14  1  0  0  0  0
 13 15  1  0  0  0  0
 13 16  1  0  0  0  0
 11 17  1  0  0  0  0
 17 18  1  0  0  0  0
 17 19  1  0  0  0  0
M  END
> <ChemID>
102541

> <source_casrn>
598-74-3

> <CAS>
598-74-3

> <SMILES>
CC(C)C(C)N

> <NAME>
3-Methyl-2-butanamine

> <preferred_name>
1,2-Dimethylpropylamine

> <iupac>
3-methylbutan-2-amine

> <MPID>
21547

> <dsstox_substance_id>
DTXSID4022074

> <Canonical_QSARr>
CC(C)C(C)N

> <InChI_Code_QSARr>
InChI=1S/C5H13N/c1-4(2)5(3)6/h4-5H,6H2,1-3H3

> <InChI Key_QSARr>
JOZZAIIGWFLONA-UHFFFAOYSA-N

> <Salt_Solvent>
?

> <BP>
85.5

$$$$
102545
  -INDIGO-08031720192D

 11 10  0  0  0  0  0  0  0  0999 V2000
    1.3856    0.8000    0.0000 C   0  0  0  0  0  0  0  0  0  0  0  0
    2.7713    1.6000    0.0000 H   0  0  0  0  0  0  0  0  0  0  0  0
    2.7713    0.0000    0.0000 H   0  0  0  0  0  0  0  0  0  0  0  0
    1.3856    2.4000    0.0000 H   0  0  0  0  0  0  0  0  0  0  0  0
    0.0000    0.0000    0.0000 C   0  0  0  0  0  0  0  0  0  0  0  0
    0.6123   -1.4782    0.0000 H   0  0  0  0  0  0  0  0  0  0  0  0
   -0.6123   -1.4782    0.0000 Cl  0  0  0  0  0  0  0  0  0  0  0  0
   -1.3856    0.8000    0.0000 C   0  0  0  0  0  0  0  0  0  0  0  0
   -2.7713    0.0000    0.0000 O   0  0  0  0  0  0  0  0  0  0  0  0
   -4.1569    0.8000    0.0000 H   0  0  0  0  0  0  0  0  0  0  0  0
   -1.3856    2.4000    0.0000 O   0  0  0  0  0  0  0  0  0  0  0  0
  1  2  1  0  0  0  0
  1  3  1  0  0  0  0
  1  4  1  0  0  0  0
  1  5  1  0  0  0  0
  5  6  1  0  0  0  0
  5  7  1  0  0  0  0
  5  8  1  0  0  0  0
  8  9  1  0  0  0  0
  9 10  1  0  0  0  0
  8 11  2  0  0  0  0
M  END
> <ChemID>
102545

> <source_casrn>
598-78-7

> <CAS>
598-78-7

> <SMILES>
CC(Cl)C(O)=O

> <NAME>
2-CHLOROPROPIONIC ACID

> <preferred_name>
2-Chloropropanoic acid

> <iupac>
2-chloropropanoic acid

> <MPID>
21551

> <dsstox_substance_id>
DTXSID0021545

> <Canonical_QSARr>
CC(Cl)C(O)=O

> <InChI_Code_QSARr>
InChI=1S/C3H5ClO2/c1-2(4)3(5)6/h2H,1H3,(H,5,6)

> <InChI Key_QSARr>
GAWAYYRQGQZKCR-UHFFFAOYSA-N

> <Salt_Solvent>
?

> <BP>
185.0

$$$$
102549
  -INDIGO-08031720192D

 20 19  0  0  0  0  0  0  0  0999 V2000
   -1.3856    0.8000    0.0000 C   0  0  0  0  0  0  0  0  0  0  0  0
    0.0000    0.0000    0.0000 C   0  0  0  0  0  0  0  0  0  0  0  0
    0.8000    1.3856    0.0000 C   0  0  0  0  0  0  0  0  0  0  0  0
    1.6000    2.7713    0.0000 H   0  0  0  0  0  0  0  0  0  0  0  0
    0.0000    2.7713    0.0000 H   0  0  0  0  0  0  0  0  0  0  0  0
    2.4000    1.3856    0.0000 H   0  0  0  0  0  0  0  0  0  0  0  0
    1.3857   -0.8000    0.0000 C   0  0  0  0  0  0  0  0  0  0  0  0
    2.7713   -1.6000    0.0000 H   0  0  0  0  0  0  0  0  0  0  0  0
    1.3857   -2.4000    0.0000 H   0  0  0  0  0  0  0  0  0  0  0  0
    2.7713    0.0000    0.0000 H   0  0  0  0  0  0  0  0  0  0  0  0
   -0.8000   -1.3856    0.0000 C   0  0  0  0  0  0  0  0  0  0  0  0
   -1.6000   -2.7713    0.0000 H   0  0  0  0  0  0  0  0  0  0  0  0
   -2.4000   -1.3856    0.0000 H   0  0  0  0  0  0  0  0  0  0  0  0
    0.0000   -2.7713    0.0000 H   0  0  0  0  0  0  0  0  0  0  0  0
   -2.7713    0.0000    0.0000 O   0  0  0  0  0  0  0  0  0  0  0  0
   -4.1569    0.8000    0.0000 C   0  0  0  0  0  0  0  0  0  0  0  0
   -5.5426    1.6000    0.0000 H   0  0  0  0  0  0  0  0  0  0  0  0
   -5.5426    0.0000    0.0000 H   0  0  0  0  0  0  0  0  0  0  0  0
   -4.1569    2.4000    0.0000 H   0  0  0  0  0  0  0  0  0  0  0  0
   -1.3856    2.4000    0.0000 O   0  0  0  0  0  0  0  0  0  0  0  0
  1  2  1  0  0  0  0
  2  3  1  0  0  0  0
  3  4  1  0  0  0  0
  3  5  1  0  0  0  0
  3  6  1  0  0  0  0
  2  7  1  0  0  0  0
  7  8  1  0  0  0  0
  7  9  1  0  0  0  0
  7 10  1  0  0  0  0
  2 11  1  0  0  0  0
 11 12  1  0  0  0  0
 11 13  1  0  0  0  0
 11 14  1  0  0  0  0
  1 15  1  0  0  0  0
 15 16  1  0  0  0  0
 16 17  1  0  0  0  0
 16 18  1  0  0  0  0
 16 19  1  0  0  0  0
  1 20  2  0  0  0  0
M  END
> <ChemID>
102549

> <source_casrn>
598-98-1

> <CAS>
598-98-1

> <SMILES>
COC(=O)C(C)(C)C

> <NAME>
PROPANOIC ACID, 2,2-DIMETHYL-, METHYL ESTER

> <preferred_name>
Methyl pivalate

> <iupac>
methyl 2,2-dimethylpropanoate

> <MPID>
21555

> <dsstox_substance_id>
DTXSID4027234

> <Canonical_QSARr>
COC(=O)C(C)(C)C

> <InChI_Code_QSARr>
InChI=1S/C6H12O2/c1-6(2,3)5(7)8-4/h1-4H3

> <InChI Key_QSARr>
CNMFHDIDIMZHKY-UHFFFAOYSA-N

> <Salt_Solvent>
?

> <BP>
101.1

$$$$
102553
  -INDIGO-08031720192D

 22 21  0  0  0  0  0  0  0  0999 V2000
   -2.4000   -1.3856    0.0000 Cl  0  0  0  0  0  0  0  0  0  0  0  0
   -0.8000   -1.3856    0.0000 C   0  0  0  0  0  0  0  0  0  0  0  0
   -1.6000   -2.7713    0.0000 Cl  0  0  0  0  0  0  0  0  0  0  0  0
    0.0001   -2.7713    0.0000 Cl  0  0  0  0  0  0  0  0  0  0  0  0
    0.0001    0.0000    0.0000 C   0  0  0  0  0  0  0  0  0  0  0  0
    1.6000    0.0000    0.0000 H   0  0  0  0  0  0  0  0  0  0  0  0
    0.8000    1.3856    0.0000 O   0  0  0  0  0  0  0  0  0  0  0  0
    2.4000    1.3856    0.0000 C   0  0  0  0  0  0  0  0  0  0  0  0
    2.6089   -0.2007    0.0000 H   0  0  0  0  0  0  0  0  0  0  0  0
    3.6694    0.4117    0.0000 H   0  0  0  0  0  0  0  0  0  0  0  0
    3.2001    2.7713    0.0000 C   0  0  0  0  0  0  0  0  0  0  0  0
    4.0000    4.1569    0.0000 H   0  0  0  0  0  0  0  0  0  0  0  0
    4.8000    2.7713    0.0000 H   0  0  0  0  0  0  0  0  0  0  0  0
    2.4000    4.1569    0.0000 H   0  0  0  0  0  0  0  0  0  0  0  0
   -0.8000    1.3856    0.0000 O   0  0  0  0  0  0  0  0  0  0  0  0
   -2.4000    1.3856    0.0000 C   0  0  0  0  0  0  0  0  0  0  0  0
   -3.6694    0.4117    0.0000 H   0  0  0  0  0  0  0  0  0  0  0  0
   -2.6089   -0.2007    0.0000 H   0  0  0  0  0  0  0  0  0  0  0  0
   -3.2001    2.7713    0.0000 C   0  0  0  0  0  0  0  0  0  0  0  0
   -4.0000    4.1569    0.0000 H   0  0  0  0  0  0  0  0  0  0  0  0
   -4.8000    2.7713    0.0000 H   0  0  0  0  0  0  0  0  0  0  0  0
   -2.4000    4.1569    0.0000 H   0  0  0  0  0  0  0  0  0  0  0  0
  1  2  1  0  0  0  0
  2  3  1  0  0  0  0
  2  4  1  0  0  0  0
  2  5  1  0  0  0  0
  5  6  1  0  0  0  0
  5  7  1  0  0  0  0
  7  8  1  0  0  0  0
  8  9  1  0  0  0  0
  8 10  1  0  0  0  0
  8 11  1  0  0  0  0
 11 12  1  0  0  0  0
 11 13  1  0  0  0  0
 11 14  1  0  0  0  0
  5 15  1  0  0  0  0
 15 16  1  0  0  0  0
 16 17  1  0  0  0  0
 16 18  1  0  0  0  0
 16 19  1  0  0  0  0
 19 20  1  0  0  0  0
 19 21  1  0  0  0  0
 19 22  1  0  0  0  0
M  END
> <ChemID>
102553

> <source_casrn>
599-97-3

> <CAS>
599-97-3

> <SMILES>
CCOC(OCC)C(Cl)(Cl)Cl

> <NAME>
ETHANE, 1,1,1-TRICHLORO-2,2-DIETHOXY-

> <preferred_name>
Ethane, 1,1,1-trichloro-2,2-diethoxy-

> <iupac>
1,1,1-trichloro-2,2-diethoxyethane

> <MPID>
21559

> <dsstox_substance_id>
DTXSID90208614

> <Canonical_QSARr>
CCOC(OCC)C(Cl)(Cl)Cl

> <InChI_Code_QSARr>
InChI=1S/C6H11Cl3O2/c1-3-10-5(11-4-2)6(7,8)9/h5H,3-4H2,1-2H3

> <InChI Key_QSARr>
CGCJBAIEQANINV-UHFFFAOYSA-N

> <Salt_Solvent>
?

> <BP>
197.0

$$$$
102559
  -INDIGO-08031720192D

 15 14  0  0  0  0  0  0  0  0999 V2000
    4.1569    0.8000    0.0000 C   0  0  0  0  0  0  0  0  0  0  0  0
    5.5426    1.6000    0.0000 H   0  0  0  0  0  0  0  0  0  0  0  0
    5.5426    0.0000    0.0000 H   0  0  0  0  0  0  0  0  0  0  0  0
    4.1569    2.4000    0.0000 H   0  0  0  0  0  0  0  0  0  0  0  0
    2.7713    0.0000    0.0000 C   0  0  0  0  0  0  0  0  0  0  0  0
    1.3857    0.8000    0.0000 C   0  0  0  0  0  0  0  0  0  0  0  0
    0.0000    0.0000    0.0000 C   0  0  0  0  0  0  0  0  0  0  0  0
    0.6122   -1.4782    0.0000 H   0  0  0  0  0  0  0  0  0  0  0  0
   -0.6122   -1.4782    0.0000 H   0  0  0  0  0  0  0  0  0  0  0  0
   -1.3856    0.8000    0.0000 C   0  0  0  0  0  0  0  0  0  0  0  0
   -2.7713    1.6000    0.0000 H   0  0  0  0  0  0  0  0  0  0  0  0
   -2.7713    0.0000    0.0000 H   0  0  0  0  0  0  0  0  0  0  0  0
   -1.3856    2.4000    0.0000 H   0  0  0  0  0  0  0  0  0  0  0  0
    1.3857    2.4000    0.0000 O   0  0  0  0  0  0  0  0  0  0  0  0
    2.7713   -1.6000    0.0000 O   0  0  0  0  0  0  0  0  0  0  0  0
  1  2  1  0  0  0  0
  1  3  1  0  0  0  0
  1  4  1  0  0  0  0
  1  5  1  0  0  0  0
  5  6  1  0  0  0  0
  6  7  1  0  0  0  0
  7  8  1  0  0  0  0
  7  9  1  0  0  0  0
  7 10  1  0  0  0  0
 10 11  1  0  0  0  0
 10 12  1  0  0  0  0
 10 13  1  0  0  0  0
  6 14  2  0  0  0  0
  5 15  2  0  0  0  0
M  END
> <ChemID>
102559

> <source_casrn>
600-14-6

> <CAS>
600-14-6

> <SMILES>
CC(=O)C(=O)CC

> <NAME>
2,3-Pentanedione

> <preferred_name>
2,3-Pentanedione

> <iupac>
pentane-2,3-dione

> <MPID>
21563

> <dsstox_substance_id>
DTXSID6051435

> <Canonical_QSARr>
CC(=O)C(=O)CC

> <InChI_Code_QSARr>
InChI=1S/C5H8O2/c1-3-5(7)4(2)6/h3H2,1-2H3

> <InChI Key_QSARr>
TZMFJUDUGYTVRY-UHFFFAOYSA-N

> <Salt_Solvent>
?

> <BP>
108.0

$$$$
102563
  -INDIGO-08031720192D

 24 23  0  0  0  0  0  0  0  0999 V2000
    1.8779   -1.5757    0.0000 C   0  0  0  0  0  0  0  0  0  0  0  0
    2.1557   -3.1514    0.0000 H   0  0  0  0  0  0  0  0  0  0  0  0
    3.3814   -2.1229    0.0000 H   0  0  0  0  0  0  0  0  0  0  0  0
    0.6522   -2.6041    0.0000 H   0  0  0  0  0  0  0  0  0  0  0  0
    1.6000    0.0000    0.0000 C   0  0  0  0  0  0  0  0  0  0  0  0
    1.3222    1.5757    0.0000 H   0  0  0  0  0  0  0  0  0  0  0  0
    3.1756    0.2779    0.0000 C   0  0  0  0  0  0  0  0  0  0  0  0
    4.7514    0.5557    0.0000 H   0  0  0  0  0  0  0  0  0  0  0  0
    3.7229    1.7813    0.0000 H   0  0  0  0  0  0  0  0  0  0  0  0
    4.2041   -0.9479    0.0000 H   0  0  0  0  0  0  0  0  0  0  0  0
    0.0001    0.0000    0.0000 C   0  0  0  0  0  0  0  0  0  0  0  0
    0.0001   -1.6000    0.0000 H   0  0  0  0  0  0  0  0  0  0  0  0
    0.0001    1.6000    0.0000 O   0  0  0  0  0  0  0  0  0  0  0  0
    1.2256    2.6285    0.0000 H   0  0  0  0  0  0  0  0  0  0  0  0
   -1.6000    0.0000    0.0000 C   0  0  0  0  0  0  0  0  0  0  0  0
   -1.6000    1.6000    0.0000 H   0  0  0  0  0  0  0  0  0  0  0  0
   -3.1756    0.2779    0.0000 C   0  0  0  0  0  0  0  0  0  0  0  0
   -4.7514    0.5557    0.0000 H   0  0  0  0  0  0  0  0  0  0  0  0
   -4.2041   -0.9479    0.0000 H   0  0  0  0  0  0  0  0  0  0  0  0
   -3.7229    1.7813    0.0000 H   0  0  0  0  0  0  0  0  0  0  0  0
   -1.6000   -1.6000    0.0000 C   0  0  0  0  0  0  0  0  0  0  0  0
   -1.6000   -3.2000    0.0000 H   0  0  0  0  0  0  0  0  0  0  0  0
   -2.9857   -2.4000    0.0000 H   0  0  0  0  0  0  0  0  0  0  0  0
   -2.9857   -0.8000    0.0000 H   0  0  0  0  0  0  0  0  0  0  0  0
  1  2  1  0  0  0  0
  1  3  1  0  0  0  0
  1  4  1  0  0  0  0
  1  5  1  0  0  0  0
  5  6  1  0  0  0  0
  5  7  1  0  0  0  0
  7  8  1  0  0  0  0
  7  9  1  0  0  0  0
  7 10  1  0  0  0  0
  5 11  1  0  0  0  0
 11 12  1  0  0  0  0
 11 13  1  0  0  0  0
 13 14  1  0  0  0  0
 11 15  1  0  0  0  0
 15 16  1  0  0  0  0
 15 17  1  0  0  0  0
 17 18  1  0  0  0  0
 17 19  1  0  0  0  0
 17 20  1  0  0  0  0
 15 21  1  0  0  0  0
 21 22  1  0  0  0  0
 21 23  1  0  0  0  0
 21 24  1  0  0  0  0
M  END
> <ChemID>
102563

> <source_casrn>
600-36-2

> <CAS>
600-36-2

> <SMILES>
CC(C)C(O)C(C)C

> <NAME>
2,4-DIMETHYL-3-PENTANOL

> <preferred_name>
2,4-Dimethyl-3-pentanol

> <iupac>
2,4-dimethylpentan-3-ol

> <MPID>
21567

> <dsstox_substance_id>
DTXSID9022075

> <Canonical_QSARr>
CC(C)C(O)C(C)C

> <InChI_Code_QSARr>
InChI=1S/C7H16O/c1-5(2)7(8)6(3)4/h5-8H,1-4H3

> <InChI Key_QSARr>
BAYAKMPRFGNNFW-UHFFFAOYSA-N

> <Salt_Solvent>
?

> <BP>
138.7

$$$$
102567
  -INDIGO-08031720192D

 21 21  0  0  0  0  0  0  0  0999 V2000
   -1.6001    2.7713    0.0000 O   0  0  0  0  0  0  0  0  0  0  0  0
    0.0000    2.7713    0.0000 N   0  0  0  0  0  0  0  0  0  0  0  0
    0.8000    4.1569    0.0000 O   0  0  0  0  0  0  0  0  0  0  0  0
    0.8000    1.3856    0.0000 C   0  0  0  0  0  0  0  0  0  0  0  0
    0.0000    0.0000    0.0000 C   0  0  0  0  0  0  0  0  0  0  0  0
   -1.6001    0.0000    0.0000 C   0  0  0  0  0  0  0  0  0  0  0  0
   -3.2000    0.0000    0.0000 H   0  0  0  0  0  0  0  0  0  0  0  0
   -2.4000   -1.3856    0.0000 H   0  0  0  0  0  0  0  0  0  0  0  0
   -2.4000    1.3856    0.0000 H   0  0  0  0  0  0  0  0  0  0  0  0
    0.8000   -1.3856    0.0000 C   0  0  0  0  0  0  0  0  0  0  0  0
    0.0000   -2.7713    0.0000 H   0  0  0  0  0  0  0  0  0  0  0  0
    2.4000   -1.3856    0.0000 C   0  0  0  0  0  0  0  0  0  0  0  0
    3.2000   -2.7713    0.0000 H   0  0  0  0  0  0  0  0  0  0  0  0
    3.2000    0.0000    0.0000 C   0  0  0  0  0  0  0  0  0  0  0  0
    4.8000    0.0000    0.0000 N   0  0  0  0  0  0  0  0  0  0  0  0
    5.6000   -1.3856    0.0000 O   0  0  0  0  0  0  0  0  0  0  0  0
    5.6000    1.3856    0.0000 O   0  0  0  0  0  0  0  0  0  0  0  0
    2.4000    1.3856    0.0000 C   0  0  0  0  0  0  0  0  0  0  0  0
    3.2000    2.7713    0.0000 N   0  0  0  0  0  0  0  0  0  0  0  0
    4.8000    2.7713    0.0000 O   0  0  0  0  0  0  0  0  0  0  0  0
    2.4000    4.1569    0.0000 O   0  0  0  0  0  0  0  0  0  0  0  0
  1  2  1  0  0  0  0
  2  3  2  0  0  0  0
  2  4  1  0  0  0  0
  4  5  1  0  0  0  0
  5  6  1  0  0  0  0
  6  7  1  0  0  0  0
  6  8  1  0  0  0  0
  6  9  1  0  0  0  0
  5 10  2  0  0  0  0
 10 11  1  0  0  0  0
 10 12  1  0  0  0  0
 12 13  1  0  0  0  0
 12 14  2  0  0  0  0
 14 15  1  0  0  0  0
 15 16  1  0  0  0  0
 15 17  2  0  0  0  0
 14 18  1  0  0  0  0
 18  4  2  0  0  0  0
 18 19  1  0  0  0  0
 19 20  1  0  0  0  0
 19 21  2  0  0  0  0
M  CHG  6   1  -1   2   1  15   1  16  -1  19   1  20  -1
M  END
> <ChemID>
102567

> <source_casrn>
602-29-9

> <CAS>
602-29-9

> <SMILES>
Cc1ccc(c(c1[N+]([O-])=O)[N+]([O-])=O)[N+]([O-])=O

> <NAME>
2,3,4-TRINITRO-toluene

> <preferred_name>
2,3,4-Trinitrotoluene

> <iupac>
1-methyl-2,3,4-trinitrobenzene

> <MPID>
21571

> <dsstox_substance_id>
DTXSID60208944

> <Canonical_QSARr>
Cc1ccc(c(c1[N+]([O-])=O)[N+]([O-])=O)[N+]([O-])=O

> <InChI_Code_QSARr>
InChI=1S/C7H5N3O6/c1-4-2-3-5(8(11)12)7(10(15)16)6(4)9(13)14/h2-3H,1H3

> <InChI Key_QSARr>
FPKOPBFLPLFWAD-UHFFFAOYSA-N

> <Salt_Solvent>
?

> <BP>
301.0

$$$$
102571
  -INDIGO-08031720192D

 34 36  0  0  0  0  0  0  0  0999 V2000
    0.0000   -0.0001    0.0000 As  0  0  0  0  0  0  0  0  0  0  0  0
    1.5035    0.5472    0.0000 C   0  0  0  0  0  0  0  0  0  0  0  0
    2.7291   -0.4811    0.0000 C   0  0  0  0  0  0  0  0  0  0  0  0
    2.4513   -2.0569    0.0000 H   0  0  0  0  0  0  0  0  0  0  0  0
    4.2328    0.0661    0.0000 C   0  0  0  0  0  0  0  0  0  0  0  0
    5.4584   -0.9624    0.0000 H   0  0  0  0  0  0  0  0  0  0  0  0
    4.5105    1.6417    0.0000 C   0  0  0  0  0  0  0  0  0  0  0  0
    6.0140    2.1889    0.0000 H   0  0  0  0  0  0  0  0  0  0  0  0
    3.2848    2.6702    0.0000 C   0  0  0  0  0  0  0  0  0  0  0  0
    3.5627    4.2459    0.0000 H   0  0  0  0  0  0  0  0  0  0  0  0
    1.7813    2.1229    0.0000 C   0  0  0  0  0  0  0  0  0  0  0  0
    1.2342    3.6265    0.0000 H   0  0  0  0  0  0  0  0  0  0  0  0
   -1.0285    1.2257    0.0000 C   0  0  0  0  0  0  0  0  0  0  0  0
   -0.4812    2.7292    0.0000 C   0  0  0  0  0  0  0  0  0  0  0  0
    1.1187    2.7292    0.0000 H   0  0  0  0  0  0  0  0  0  0  0  0
   -1.5097    3.9548    0.0000 C   0  0  0  0  0  0  0  0  0  0  0  0
   -0.9625    5.4584    0.0000 H   0  0  0  0  0  0  0  0  0  0  0  0
   -3.0854    3.6770    0.0000 C   0  0  0  0  0  0  0  0  0  0  0  0
   -4.1139    4.9027    0.0000 H   0  0  0  0  0  0  0  0  0  0  0  0
   -3.6325    2.1734    0.0000 C   0  0  0  0  0  0  0  0  0  0  0  0
   -5.2083    1.8956    0.0000 H   0  0  0  0  0  0  0  0  0  0  0  0
   -2.6042    0.9479    0.0000 C   0  0  0  0  0  0  0  0  0  0  0  0
   -2.8820   -0.6279    0.0000 H   0  0  0  0  0  0  0  0  0  0  0  0
   -0.8000   -1.3856    0.0000 C   0  0  0  0  0  0  0  0  0  0  0  0
    0.0000   -2.7713    0.0000 C   0  0  0  0  0  0  0  0  0  0  0  0
    1.5999   -2.7713    0.0000 H   0  0  0  0  0  0  0  0  0  0  0  0
   -0.8000   -4.1569    0.0000 C   0  0  0  0  0  0  0  0  0  0  0  0
    0.0000   -5.5426    0.0000 H   0  0  0  0  0  0  0  0  0  0  0  0
   -2.3999   -4.1569    0.0000 C   0  0  0  0  0  0  0  0  0  0  0  0
   -3.2000   -5.5426    0.0000 H   0  0  0  0  0  0  0  0  0  0  0  0
   -3.2000   -2.7713    0.0000 C   0  0  0  0  0  0  0  0  0  0  0  0
   -4.8001   -2.7713    0.0000 H   0  0  0  0  0  0  0  0  0  0  0  0
   -2.3999   -1.3856    0.0000 C   0  0  0  0  0  0  0  0  0  0  0  0
   -3.7856   -0.5856    0.0000 H   0  0  0  0  0  0  0  0  0  0  0  0
  1  2  1  0  0  0  0
  2  3  1  0  0  0  0
  3  4  1  0  0  0  0
  3  5  2  0  0  0  0
  5  6  1  0  0  0  0
  5  7  1  0  0  0  0
  7  8  1  0  0  0  0
  7  9  2  0  0  0  0
  9 10  1  0  0  0  0
  9 11  1  0  0  0  0
 11  2  2  0  0  0  0
 11 12  1  0  0  0  0
  1 13  1  0  0  0  0
 13 14  1  0  0  0  0
 14 15  1  0  0  0  0
 14 16  2  0  0  0  0
 16 17  1  0  0  0  0
 16 18  1  0  0  0  0
 18 19  1  0  0  0  0
 18 20  2  0  0  0  0
 20 21  1  0  0  0  0
 20 22  1  0  0  0  0
 22 13  2  0  0  0  0
 22 23  1  0  0  0  0
  1 24  1  0  0  0  0
 24 25  1  0  0  0  0
 25 26  1  0  0  0  0
 25 27  2  0  0  0  0
 27 28  1  0  0  0  0
 27 29  1  0  0  0  0
 29 30  1  0  0  0  0
 29 31  2  0  0  0  0
 31 32  1  0  0  0  0
 31 33  1  0  0  0  0
 33 24  2  0  0  0  0
 33 34  1  0  0  0  0
M  END
> <ChemID>
102571

> <source_casrn>
603-32-7

> <CAS>
603-32-7

> <SMILES>
c1ccccc1[As](c1ccccc1)c1ccccc1

> <NAME>
TRIPHENYLARSINE

> <preferred_name>
Arsine, triphenyl-

> <iupac>
tri(phenyl)arsane

> <MPID>
21575

> <dsstox_substance_id>
DTXSID4060529

> <Canonical_QSARr>
c1ccccc1[As](c1ccccc1)c1ccccc1

> <InChI_Code_QSARr>
InChI=1S/C18H15As/c1-4-10-16(11-5-1)19(17-12-6-2-7-13-17)18-14-8-3-9-15-18/h1-15H

> <InChI Key_QSARr>
BPLUKJNHPBNVQL-UHFFFAOYSA-N

> <Salt_Solvent>
?

> <BP>
360.0

$$$$
102575
  -INDIGO-08031720192D

 23 23  0  0  0  0  0  0  0  0999 V2000
   -2.7713    1.5999    0.0000 O   0  0  0  0  0  0  0  0  0  0  0  0
   -1.3857    2.4000    0.0000 N   0  0  0  0  0  0  0  0  0  0  0  0
   -1.3857    4.0000    0.0000 O   0  0  0  0  0  0  0  0  0  0  0  0
    0.0000    1.6001    0.0000 C   0  0  0  0  0  0  0  0  0  0  0  0
    1.3857    2.4000    0.0000 C   0  0  0  0  0  0  0  0  0  0  0  0
    1.3857    4.0000    0.0000 C   0  0  0  0  0  0  0  0  0  0  0  0
    1.3857    5.6000    0.0000 H   0  0  0  0  0  0  0  0  0  0  0  0
    2.7713    4.8001    0.0000 H   0  0  0  0  0  0  0  0  0  0  0  0
    0.0000    4.8001    0.0000 H   0  0  0  0  0  0  0  0  0  0  0  0
    2.7713    1.6001    0.0000 C   0  0  0  0  0  0  0  0  0  0  0  0
    4.1570    2.4000    0.0000 H   0  0  0  0  0  0  0  0  0  0  0  0
    2.7713    0.0001    0.0000 C   0  0  0  0  0  0  0  0  0  0  0  0
    4.1570   -0.8000    0.0000 C   0  0  0  0  0  0  0  0  0  0  0  0
    5.5426   -1.6001    0.0000 H   0  0  0  0  0  0  0  0  0  0  0  0
    4.1570   -2.4000    0.0000 H   0  0  0  0  0  0  0  0  0  0  0  0
    5.5426   -0.0001    0.0000 H   0  0  0  0  0  0  0  0  0  0  0  0
    1.3857   -0.8000    0.0000 C   0  0  0  0  0  0  0  0  0  0  0  0
    1.3857   -2.4000    0.0000 H   0  0  0  0  0  0  0  0  0  0  0  0
    0.0000    0.0001    0.0000 C   0  0  0  0  0  0  0  0  0  0  0  0
   -1.3857   -0.8000    0.0000 C   0  0  0  0  0  0  0  0  0  0  0  0
   -2.7713   -1.5999    0.0000 H   0  0  0  0  0  0  0  0  0  0  0  0
   -1.3857   -2.4000    0.0000 H   0  0  0  0  0  0  0  0  0  0  0  0
   -2.7713    0.0001    0.0000 H   0  0  0  0  0  0  0  0  0  0  0  0
  1  2  1  0  0  0  0
  2  3  2  0  0  0  0
  2  4  1  0  0  0  0
  4  5  1  0  0  0  0
  5  6  1  0  0  0  0
  6  7  1  0  0  0  0
  6  8  1  0  0  0  0
  6  9  1  0  0  0  0
  5 10  2  0  0  0  0
 10 11  1  0  0  0  0
 10 12  1  0  0  0  0
 12 13  1  0  0  0  0
 13 14  1  0  0  0  0
 13 15  1  0  0  0  0
 13 16  1  0  0  0  0
 12 17  2  0  0  0  0
 17 18  1  0  0  0  0
 17 19  1  0  0  0  0
 19  4  2  0  0  0  0
 19 20  1  0  0  0  0
 20 21  1  0  0  0  0
 20 22  1  0  0  0  0
 20 23  1  0  0  0  0
M  CHG  2   1  -1   2   1
M  END
> <ChemID>
102575

> <source_casrn>
603-71-4

> <CAS>
603-71-4

> <SMILES>
Cc1cc(C)c(c(C)c1)[N+]([O-])=O

> <NAME>
Benzene, 1,3,5-trimethyl-2-nitro-

> <preferred_name>
Benzene, 1,3,5-trimethyl-2-nitro-

> <iupac>
1,3,5-Trimethyl-2-nitrobenzene

> <MPID>
21579

> <dsstox_substance_id>
DTXSID8060533

> <Canonical_QSARr>
Cc1cc(C)c(c(C)c1)[N+]([O-])=O

> <InChI_Code_QSARr>
InChI=1S/C9H11NO2/c1-6-4-7(2)9(10(11)12)8(3)5-6/h4-5H,1-3H3

> <InChI Key_QSARr>
SCEKDQTVGHRSNS-UHFFFAOYSA-N

> <Salt_Solvent>
?

> <BP>
255.0

$$$$
102579
  -INDIGO-08031720192D

 42 42  0  0  0  0  0  0  0  0999 V2000
    0.0001    0.0000    0.0000 C   0  0  0  0  0  0  0  0  0  0  0  0
    0.8001   -1.3856    0.0000 C   0  0  0  0  0  0  0  0  0  0  0  0
    2.4000   -1.3856    0.0000 C   0  0  0  0  0  0  0  0  0  0  0  0
    3.6693   -0.4116    0.0000 H   0  0  0  0  0  0  0  0  0  0  0  0
    2.6089    0.2006    0.0000 H   0  0  0  0  0  0  0  0  0  0  0  0
    3.2000   -2.7713    0.0000 C   0  0  0  0  0  0  0  0  0  0  0  0
    4.8000   -2.7713    0.0000 H   0  0  0  0  0  0  0  0  0  0  0  0
    4.0000   -4.1569    0.0000 H   0  0  0  0  0  0  0  0  0  0  0  0
    4.0000   -1.3856    0.0000 H   0  0  0  0  0  0  0  0  0  0  0  0
    0.0001   -2.7713    0.0000 C   0  0  0  0  0  0  0  0  0  0  0  0
    0.8001   -4.1569    0.0000 C   0  0  0  0  0  0  0  0  0  0  0  0
    2.2782   -4.7692    0.0000 H   0  0  0  0  0  0  0  0  0  0  0  0
    2.2782   -3.5446    0.0000 H   0  0  0  0  0  0  0  0  0  0  0  0
    0.0001   -5.5426    0.0000 C   0  0  0  0  0  0  0  0  0  0  0  0
   -0.7999   -6.9282    0.0000 H   0  0  0  0  0  0  0  0  0  0  0  0
    0.8001   -6.9282    0.0000 H   0  0  0  0  0  0  0  0  0  0  0  0
   -1.6001   -5.5426    0.0000 H   0  0  0  0  0  0  0  0  0  0  0  0
   -1.6001   -2.7713    0.0000 C   0  0  0  0  0  0  0  0  0  0  0  0
   -2.4001   -4.1569    0.0000 H   0  0  0  0  0  0  0  0  0  0  0  0
   -2.4001   -1.3856    0.0000 C   0  0  0  0  0  0  0  0  0  0  0  0
   -4.0000   -1.3856    0.0000 C   0  0  0  0  0  0  0  0  0  0  0  0
   -4.2089    0.2006    0.0000 H   0  0  0  0  0  0  0  0  0  0  0  0
   -5.2693   -0.4116    0.0000 H   0  0  0  0  0  0  0  0  0  0  0  0
   -4.8000   -2.7713    0.0000 C   0  0  0  0  0  0  0  0  0  0  0  0
   -6.4000   -2.7713    0.0000 H   0  0  0  0  0  0  0  0  0  0  0  0
   -5.6000   -4.1569    0.0000 H   0  0  0  0  0  0  0  0  0  0  0  0
   -5.6000   -1.3856    0.0000 H   0  0  0  0  0  0  0  0  0  0  0  0
   -1.6001    0.0000    0.0000 C   0  0  0  0  0  0  0  0  0  0  0  0
   -2.4001    1.3856    0.0000 C   0  0  0  0  0  0  0  0  0  0  0  0
   -1.3191    2.5653    0.0000 H   0  0  0  0  0  0  0  0  0  0  0  0
   -2.1912    2.9720    0.0000 H   0  0  0  0  0  0  0  0  0  0  0  0
   -4.0000    1.3856    0.0000 C   0  0  0  0  0  0  0  0  0  0  0  0
   -4.8000    2.7713    0.0000 H   0  0  0  0  0  0  0  0  0  0  0  0
   -5.6000    1.3856    0.0000 H   0  0  0  0  0  0  0  0  0  0  0  0
   -3.2000    2.7713    0.0000 H   0  0  0  0  0  0  0  0  0  0  0  0
    0.8001    1.3856    0.0000 C   0  0  0  0  0  0  0  0  0  0  0  0
    0.5912    2.9720    0.0000 H   0  0  0  0  0  0  0  0  0  0  0  0
   -0.2809    2.5653    0.0000 H   0  0  0  0  0  0  0  0  0  0  0  0
    2.4000    1.3856    0.0000 C   0  0  0  0  0  0  0  0  0  0  0  0
    3.2000    2.7713    0.0000 H   0  0  0  0  0  0  0  0  0  0  0  0
    4.0000    1.3856    0.0000 H   0  0  0  0  0  0  0  0  0  0  0  0
    1.6000    2.7713    0.0000 H   0  0  0  0  0  0  0  0  0  0  0  0
  1  2  1  0  0  0  0
  2  3  1  0  0  0  0
  3  4  1  0  0  0  0
  3  5  1  0  0  0  0
  3  6  1  0  0  0  0
  6  7  1  0  0  0  0
  6  8  1  0  0  0  0
  6  9  1  0  0  0  0
  2 10  2  0  0  0  0
 10 11  1  0  0  0  0
 11 12  1  0  0  0  0
 11 13  1  0  0  0  0
 11 14  1  0  0  0  0
 14 15  1  0  0  0  0
 14 16  1  0  0  0  0
 14 17  1  0  0  0  0
 10 18  1  0  0  0  0
 18 19  1  0  0  0  0
 18 20  2  0  0  0  0
 20 21  1  0  0  0  0
 21 22  1  0  0  0  0
 21 23  1  0  0  0  0
 21 24  1  0  0  0  0
 24 25  1  0  0  0  0
 24 26  1  0  0  0  0
 24 27  1  0  0  0  0
 20 28  1  0  0  0  0
 28  1  2  0  0  0  0
 28 29  1  0  0  0  0
 29 30  1  0  0  0  0
 29 31  1  0  0  0  0
 29 32  1  0  0  0  0
 32 33  1  0  0  0  0
 32 34  1  0  0  0  0
 32 35  1  0  0  0  0
  1 36  1  0  0  0  0
 36 37  1  0  0  0  0
 36 38  1  0  0  0  0
 36 39  1  0  0  0  0
 39 40  1  0  0  0  0
 39 41  1  0  0  0  0
 39 42  1  0  0  0  0
M  END
> <ChemID>
102579

> <source_casrn>
605-01-6

> <CAS>
605-01-6

> <SMILES>
CCc1c(CC)c(CC)cc(CC)c1CC

> <NAME>
Benzene, pentaethyl-

> <preferred_name>
Pentaethylbenzene

> <iupac>
1,2,3,4,5-pentaethylbenzene

> <MPID>
21583

> <dsstox_substance_id>
DTXSID3060538

> <Canonical_QSARr>
CCc1c(CC)c(CC)cc(CC)c1CC

> <InChI_Code_QSARr>
InChI=1S/C16H26/c1-6-12-11-13(7-2)15(9-4)16(10-5)14(12)8-3/h11H,6-10H2,1-5H3

> <InChI Key_QSARr>
JREJWHNDQOGSQT-UHFFFAOYSA-N

> <Salt_Solvent>
?

> <BP>
277.0

$$$$
102583
  -INDIGO-08031720192D

 19 19  0  0  0  0  0  0  0  0999 V2000
    0.8000    1.3856    0.0000 C   0  0  0  0  0  0  0  0  0  0  0  0
    1.6000    2.7713    0.0000 H   0  0  0  0  0  0  0  0  0  0  0  0
   -0.0000    2.7713    0.0000 H   0  0  0  0  0  0  0  0  0  0  0  0
    2.4000    1.3856    0.0000 H   0  0  0  0  0  0  0  0  0  0  0  0
   -0.0000    0.0000    0.0000 C   0  0  0  0  0  0  0  0  0  0  0  0
    0.8000   -1.3856    0.0000 C   0  0  0  0  0  0  0  0  0  0  0  0
    2.4000   -1.3856    0.0000 N   0  0  0  0  0  0  0  0  0  0  0  0
    3.2000   -2.7713    0.0000 O   0  0  0  0  0  0  0  0  0  0  0  0
    3.2000    0.0000    0.0000 O   0  0  0  0  0  0  0  0  0  0  0  0
   -0.0000   -2.7713    0.0000 C   0  0  0  0  0  0  0  0  0  0  0  0
    0.8000   -4.1569    0.0000 H   0  0  0  0  0  0  0  0  0  0  0  0
   -1.6000   -2.7713    0.0000 C   0  0  0  0  0  0  0  0  0  0  0  0
   -2.4000   -4.1569    0.0000 H   0  0  0  0  0  0  0  0  0  0  0  0
   -2.4000   -1.3856    0.0000 C   0  0  0  0  0  0  0  0  0  0  0  0
   -4.0000   -1.3856    0.0000 H   0  0  0  0  0  0  0  0  0  0  0  0
   -1.6000    0.0000    0.0000 C   0  0  0  0  0  0  0  0  0  0  0  0
   -2.4000    1.3856    0.0000 N   0  0  0  0  0  0  0  0  0  0  0  0
   -4.0000    1.3856    0.0000 O   0  0  0  0  0  0  0  0  0  0  0  0
   -1.6000    2.7713    0.0000 O   0  0  0  0  0  0  0  0  0  0  0  0
  1  2  1  0  0  0  0
  1  3  1  0  0  0  0
  1  4  1  0  0  0  0
  1  5  1  0  0  0  0
  5  6  1  0  0  0  0
  6  7  1  0  0  0  0
  7  8  2  0  0  0  0
  7  9  1  0  0  0  0
  6 10  2  0  0  0  0
 10 11  1  0  0  0  0
 10 12  1  0  0  0  0
 12 13  1  0  0  0  0
 12 14  2  0  0  0  0
 14 15  1  0  0  0  0
 14 16  1  0  0  0  0
 16  5  2  0  0  0  0
 16 17  1  0  0  0  0
 17 18  2  0  0  0  0
 17 19  1  0  0  0  0
M  CHG  4   7   1   9  -1  17   1  19  -1
M  END
> <ChemID>
102583

> <source_casrn>
606-20-2

> <CAS>
606-20-2

> <SMILES>
Cc1c(cccc1[N+]([O-])=O)[N+]([O-])=O

> <NAME>
2,6-DINITROTOLUENE

> <preferred_name>
2,6-Dinitrotoluene

> <iupac>
2-methyl-1,3-dinitrobenzene

> <MPID>
21587

> <dsstox_substance_id>
DTXSID5020528

> <Canonical_QSARr>
Cc1c(cccc1[N+]([O-])=O)[N+]([O-])=O

> <InChI_Code_QSARr>
InChI=1S/C7H6N2O4/c1-5-6(8(10)11)3-2-4-7(5)9(12)13/h2-4H,1H3

> <InChI Key_QSARr>
XTRDKALNCIHHNI-UHFFFAOYSA-N

> <Salt_Solvent>
?

> <BP>
300.0

$$$$
102587
  -INDIGO-08031720192D

 21 22  0  0  0  0  0  0  0  0999 V2000
   -0.0000    0.0000    0.0000 C   0  0  0  0  0  0  0  0  0  0  0  0
    1.6000    0.0000    0.0000 N   0  0  0  0  0  0  0  0  0  0  0  0
    2.4001    1.3856    0.0000 C   0  0  0  0  0  0  0  0  0  0  0  0
    3.2000    2.7713    0.0000 H   0  0  0  0  0  0  0  0  0  0  0  0
    4.0000    1.3856    0.0000 H   0  0  0  0  0  0  0  0  0  0  0  0
    1.6000    2.7713    0.0000 H   0  0  0  0  0  0  0  0  0  0  0  0
    2.4001   -1.3856    0.0000 C   0  0  0  0  0  0  0  0  0  0  0  0
    4.0000   -1.3856    0.0000 O   0  0  0  0  0  0  0  0  0  0  0  0
    1.6000   -2.7713    0.0000 C   0  0  0  0  0  0  0  0  0  0  0  0
    2.4001   -4.1569    0.0000 H   0  0  0  0  0  0  0  0  0  0  0  0
   -0.0000   -2.7713    0.0000 C   0  0  0  0  0  0  0  0  0  0  0  0
   -0.8000   -4.1569    0.0000 H   0  0  0  0  0  0  0  0  0  0  0  0
   -0.8000   -1.3856    0.0000 C   0  0  0  0  0  0  0  0  0  0  0  0
   -2.4000   -1.3856    0.0000 C   0  0  0  0  0  0  0  0  0  0  0  0
   -3.2001   -2.7713    0.0000 H   0  0  0  0  0  0  0  0  0  0  0  0
   -3.2001    0.0000    0.0000 C   0  0  0  0  0  0  0  0  0  0  0  0
   -4.8000    0.0000    0.0000 H   0  0  0  0  0  0  0  0  0  0  0  0
   -2.4000    1.3856    0.0000 C   0  0  0  0  0  0  0  0  0  0  0  0
   -3.2001    2.7713    0.0000 H   0  0  0  0  0  0  0  0  0  0  0  0
   -0.8000    1.3856    0.0000 C   0  0  0  0  0  0  0  0  0  0  0  0
   -0.0000    2.7713    0.0000 H   0  0  0  0  0  0  0  0  0  0  0  0
  1  2  1  0  0  0  0
  2  3  1  0  0  0  0
  3  4  1  0  0  0  0
  3  5  1  0  0  0  0
  3  6  1  0  0  0  0
  2  7  1  0  0  0  0
  7  8  2  0  0  0  0
  7  9  1  0  0  0  0
  9 10  1  0  0  0  0
  9 11  2  0  0  0  0
 11 12  1  0  0  0  0
 11 13  1  0  0  0  0
 13  1  1  0  0  0  0
 13 14  2  0  0  0  0
 14 15  1  0  0  0  0
 14 16  1  0  0  0  0
 16 17  1  0  0  0  0
 16 18  2  0  0  0  0
 18 19  1  0  0  0  0
 18 20  1  0  0  0  0
 20  1  2  0  0  0  0
 20 21  1  0  0  0  0
M  END
> <ChemID>
102587

> <source_casrn>
606-43-9

> <CAS>
606-43-9

> <SMILES>
CN1C(=O)C=Cc2ccccc12

> <NAME>
1-METHYL-2(H)-QUINOLINONE

> <preferred_name>
2(1H)-Quinolinone, 1-methyl-

> <iupac>
1-methylquinolin-2-one

> <MPID>
21591

> <dsstox_substance_id>
DTXSID1060552

> <Canonical_QSARr>
CN1C(=O)C=Cc2ccccc12

> <InChI_Code_QSARr>
InChI=1S/C10H9NO/c1-11-9-5-3-2-4-8(9)6-7-10(11)12/h2-7H,1H3

> <InChI Key_QSARr>
QYEMNJMSULGQRD-UHFFFAOYSA-N

> <Salt_Solvent>
?

> <BP>
325.0

$$$$
102591
  -INDIGO-08031720192D

 30 31  0  0  0  0  0  0  0  0999 V2000
    0.0001   -0.0001    0.0000 P   0  0  0  0  0  0  0  0  0  0  0  0
    1.5035   -0.5472    0.0000 C   0  0  0  0  0  0  0  0  0  0  0  0
    2.0507   -2.0508    0.0000 C   0  0  0  0  0  0  0  0  0  0  0  0
    1.0223   -3.2764    0.0000 H   0  0  0  0  0  0  0  0  0  0  0  0
    3.6264   -2.3286    0.0000 C   0  0  0  0  0  0  0  0  0  0  0  0
    4.1736   -3.8321    0.0000 H   0  0  0  0  0  0  0  0  0  0  0  0
    4.6549   -1.1030    0.0000 C   0  0  0  0  0  0  0  0  0  0  0  0
    6.2306   -1.3807    0.0000 H   0  0  0  0  0  0  0  0  0  0  0  0
    4.1077    0.4006    0.0000 C   0  0  0  0  0  0  0  0  0  0  0  0
    5.1362    1.6263    0.0000 H   0  0  0  0  0  0  0  0  0  0  0  0
    2.5320    0.6785    0.0000 C   0  0  0  0  0  0  0  0  0  0  0  0
    1.9848    2.1819    0.0000 H   0  0  0  0  0  0  0  0  0  0  0  0
   -1.3857   -0.8000    0.0000 C   0  0  0  0  0  0  0  0  0  0  0  0
   -1.3857   -2.4000    0.0000 C   0  0  0  0  0  0  0  0  0  0  0  0
    0.0001   -3.2000    0.0000 H   0  0  0  0  0  0  0  0  0  0  0  0
   -2.7713   -3.2000    0.0000 C   0  0  0  0  0  0  0  0  0  0  0  0
   -2.7713   -4.8000    0.0000 H   0  0  0  0  0  0  0  0  0  0  0  0
   -4.1569   -2.4000    0.0000 C   0  0  0  0  0  0  0  0  0  0  0  0
   -5.5426   -3.2000    0.0000 H   0  0  0  0  0  0  0  0  0  0  0  0
   -4.1569   -0.8000    0.0000 C   0  0  0  0  0  0  0  0  0  0  0  0
   -5.5426   -0.0001    0.0000 H   0  0  0  0  0  0  0  0  0  0  0  0
   -2.7713   -0.0001    0.0000 C   0  0  0  0  0  0  0  0  0  0  0  0
   -3.0491    1.5757    0.0000 H   0  0  0  0  0  0  0  0  0  0  0  0
   -0.2778    1.5757    0.0000 C   0  0  0  0  0  0  0  0  0  0  0  0
   -1.8763    1.5060    0.0000 H   0  0  0  0  0  0  0  0  0  0  0  0
   -1.4574    2.6567    0.0000 H   0  0  0  0  0  0  0  0  0  0  0  0
    0.9479    2.6042    0.0000 C   0  0  0  0  0  0  0  0  0  0  0  0
    0.6700    4.1798    0.0000 H   0  0  0  0  0  0  0  0  0  0  0  0
    2.1734    3.6326    0.0000 H   0  0  0  0  0  0  0  0  0  0  0  0
   -0.5557    3.1513    0.0000 H   0  0  0  0  0  0  0  0  0  0  0  0
  1  2  1  0  0  0  0
  2  3  1  0  0  0  0
  3  4  1  0  0  0  0
  3  5  2  0  0  0  0
  5  6  1  0  0  0  0
  5  7  1  0  0  0  0
  7  8  1  0  0  0  0
  7  9  2  0  0  0  0
  9 10  1  0  0  0  0
  9 11  1  0  0  0  0
 11  2  2  0  0  0  0
 11 12  1  0  0  0  0
  1 13  1  0  0  0  0
 13 14  1  0  0  0  0
 14 15  1  0  0  0  0
 14 16  2  0  0  0  0
 16 17  1  0  0  0  0
 16 18  1  0  0  0  0
 18 19  1  0  0  0  0
 18 20  2  0  0  0  0
 20 21  1  0  0  0  0
 20 22  1  0  0  0  0
 22 13  2  0  0  0  0
 22 23  1  0  0  0  0
  1 24  1  0  0  0  0
 24 25  1  0  0  0  0
 24 26  1  0  0  0  0
 24 27  1  0  0  0  0
 27 28  1  0  0  0  0
 27 29  1  0  0  0  0
 27 30  1  0  0  0  0
M  END
> <ChemID>
102591

> <source_casrn>
607-01-2

> <CAS>
607-01-2

> <SMILES>
CCP(c1ccccc1)c1ccccc1

> <NAME>
Phosphine, ethyldiphenyl-

> <preferred_name>
Phosphine, ethyldiphenyl-

> <iupac>
ethyl-di(phenyl)phosphane

> <MPID>
21595

> <dsstox_substance_id>
DTXSID4073207

> <Canonical_QSARr>
CCP(c1ccccc1)c1ccccc1

> <InChI_Code_QSARr>
InChI=1S/C14H15P/c1-2-15(13-9-5-3-6-10-13)14-11-7-4-8-12-14/h3-12H,2H2,1H3

> <InChI Key_QSARr>
WUOIAOOSKMHJOV-UHFFFAOYSA-N

> <Salt_Solvent>
?

> <BP>
293.0

$$$$
102595
  -INDIGO-08031720192D

 25 25  0  0  0  0  0  0  0  0999 V2000
    1.3856    0.8000    0.0000 C   0  0  0  0  0  0  0  0  0  0  0  0
    2.7713    1.6000    0.0000 H   0  0  0  0  0  0  0  0  0  0  0  0
    2.7713   -0.0000    0.0000 H   0  0  0  0  0  0  0  0  0  0  0  0
    1.3856    2.4000    0.0000 H   0  0  0  0  0  0  0  0  0  0  0  0
    0.0001   -0.0000    0.0000 C   0  0  0  0  0  0  0  0  0  0  0  0
   -0.6123   -1.4782    0.0000 H   0  0  0  0  0  0  0  0  0  0  0  0
    0.6122   -1.4782    0.0000 H   0  0  0  0  0  0  0  0  0  0  0  0
   -1.3856    0.8000    0.0000 C   0  0  0  0  0  0  0  0  0  0  0  0
   -0.7733    2.2782    0.0000 H   0  0  0  0  0  0  0  0  0  0  0  0
   -1.9980    2.2782    0.0000 H   0  0  0  0  0  0  0  0  0  0  0  0
   -2.7713   -0.0000    0.0000 O   0  0  0  0  0  0  0  0  0  0  0  0
   -4.1569    0.8000    0.0000 C   0  0  0  0  0  0  0  0  0  0  0  0
   -4.1569    2.4000    0.0000 O   0  0  0  0  0  0  0  0  0  0  0  0
   -5.5426   -0.0000    0.0000 C   0  0  0  0  0  0  0  0  0  0  0  0
   -5.5426   -1.6000    0.0000 C   0  0  0  0  0  0  0  0  0  0  0  0
   -4.1569   -2.4000    0.0000 H   0  0  0  0  0  0  0  0  0  0  0  0
   -6.9283   -2.4000    0.0000 C   0  0  0  0  0  0  0  0  0  0  0  0
   -6.9283   -4.0000    0.0000 H   0  0  0  0  0  0  0  0  0  0  0  0
   -8.3138   -1.6000    0.0000 C   0  0  0  0  0  0  0  0  0  0  0  0
   -9.6995   -2.4000    0.0000 H   0  0  0  0  0  0  0  0  0  0  0  0
   -8.3138   -0.0000    0.0000 C   0  0  0  0  0  0  0  0  0  0  0  0
   -9.6995    0.8000    0.0000 H   0  0  0  0  0  0  0  0  0  0  0  0
   -6.9283    0.8000    0.0000 C   0  0  0  0  0  0  0  0  0  0  0  0
   -6.9283    2.4000    0.0000 O   0  0  0  0  0  0  0  0  0  0  0  0
   -8.3138    3.2000    0.0000 H   0  0  0  0  0  0  0  0  0  0  0  0
  1  2  1  0  0  0  0
  1  3  1  0  0  0  0
  1  4  1  0  0  0  0
  1  5  1  0  0  0  0
  5  6  1  0  0  0  0
  5  7  1  0  0  0  0
  5  8  1  0  0  0  0
  8  9  1  0  0  0  0
  8 10  1  0  0  0  0
  8 11  1  0  0  0  0
 11 12  1  0  0  0  0
 12 13  2  0  0  0  0
 12 14  1  0  0  0  0
 14 15  1  0  0  0  0
 15 16  1  0  0  0  0
 15 17  2  0  0  0  0
 17 18  1  0  0  0  0
 17 19  1  0  0  0  0
 19 20  1  0  0  0  0
 19 21  2  0  0  0  0
 21 22  1  0  0  0  0
 21 23  1  0  0  0  0
 23 14  2  0  0  0  0
 23 24  1  0  0  0  0
 24 25  1  0  0  0  0
M  END
> <ChemID>
102595

> <source_casrn>
607-90-9

> <CAS>
607-90-9

> <SMILES>
CCCOC(=O)c1ccccc1O

> <NAME>
BENZOIC ACID, 2-HYDROXY-, PROPYL ESTER

> <preferred_name>
Propyl salicylate

> <iupac>
propyl 2-hydroxybenzoate

> <MPID>
21599

> <dsstox_substance_id>
DTXSID3046790

> <Canonical_QSARr>
CCCOC(=O)c1ccccc1O

> <InChI_Code_QSARr>
InChI=1S/C10H12O3/c1-2-7-13-10(12)8-5-3-4-6-9(8)11/h3-6,11H,2,7H2,1H3

> <InChI Key_QSARr>
LZFIOSVZIQOVFW-UHFFFAOYSA-N

> <Salt_Solvent>
?

> <BP>
239.0

$$$$
102599
  -INDIGO-08031720192D

 17 17  0  0  0  0  0  0  0  0999 V2000
    0.8000    1.3856    0.0000 C   0  0  0  0  0  0  0  0  0  0  0  0
    1.6000    2.7713    0.0000 H   0  0  0  0  0  0  0  0  0  0  0  0
   -0.0000    2.7713    0.0000 H   0  0  0  0  0  0  0  0  0  0  0  0
    2.4000    1.3856    0.0000 H   0  0  0  0  0  0  0  0  0  0  0  0
   -0.0000    0.0000    0.0000 C   0  0  0  0  0  0  0  0  0  0  0  0
    0.8000   -1.3856    0.0000 C   0  0  0  0  0  0  0  0  0  0  0  0
    2.4000   -1.3856    0.0000 O   0  0  0  0  0  0  0  0  0  0  0  0
    3.2000   -2.7713    0.0000 H   0  0  0  0  0  0  0  0  0  0  0  0
   -0.0000   -2.7713    0.0000 C   0  0  0  0  0  0  0  0  0  0  0  0
    0.8000   -4.1569    0.0000 H   0  0  0  0  0  0  0  0  0  0  0  0
   -1.6000   -2.7713    0.0000 C   0  0  0  0  0  0  0  0  0  0  0  0
   -2.4000   -4.1569    0.0000 H   0  0  0  0  0  0  0  0  0  0  0  0
   -2.4000   -1.3856    0.0000 C   0  0  0  0  0  0  0  0  0  0  0  0
   -4.0000   -1.3856    0.0000 H   0  0  0  0  0  0  0  0  0  0  0  0
   -1.6000    0.0000    0.0000 C   0  0  0  0  0  0  0  0  0  0  0  0
   -2.4000    1.3856    0.0000 O   0  0  0  0  0  0  0  0  0  0  0  0
   -4.0000    1.3856    0.0000 H   0  0  0  0  0  0  0  0  0  0  0  0
  1  2  1  0  0  0  0
  1  3  1  0  0  0  0
  1  4  1  0  0  0  0
  1  5  1  0  0  0  0
  5  6  1  0  0  0  0
  6  7  1  0  0  0  0
  7  8  1  0  0  0  0
  6  9  2  0  0  0  0
  9 10  1  0  0  0  0
  9 11  1  0  0  0  0
 11 12  1  0  0  0  0
 11 13  2  0  0  0  0
 13 14  1  0  0  0  0
 13 15  1  0  0  0  0
 15  5  2  0  0  0  0
 15 16  1  0  0  0  0
 16 17  1  0  0  0  0
M  END
> <ChemID>
102599

> <source_casrn>
608-25-3

> <CAS>
608-25-3

> <SMILES>
Cc1c(O)cccc1O

> <NAME>
1,3-Benzenediol, 2-methyl-

> <preferred_name>
2-Methyl-1,3-benzenediol

> <iupac>
2-methylbenzene-1,3-diol

> <MPID>
21603

> <dsstox_substance_id>
DTXSID0025571

> <Canonical_QSARr>
Cc1c(O)cccc1O

> <InChI_Code_QSARr>
InChI=1S/C7H8O2/c1-5-6(8)3-2-4-7(5)9/h2-4,8-9H,1H3

> <InChI Key_QSARr>
ZTMADXFOCUXMJE-UHFFFAOYSA-N

> <Salt_Solvent>
?

> <BP>
264.0

$$$$
102603
  -INDIGO-08031720192D

 14 14  0  0  0  0  0  0  0  0999 V2000
    0.0000    2.7713    0.0000 Br  0  0  0  0  0  0  0  0  0  0  0  0
   -0.8000    1.3856    0.0000 C   0  0  0  0  0  0  0  0  0  0  0  0
    0.0000   -0.0000    0.0000 C   0  0  0  0  0  0  0  0  0  0  0  0
    1.6000   -0.0000    0.0000 N   0  0  0  0  0  0  0  0  0  0  0  0
    2.4000    1.3856    0.0000 H   0  0  0  0  0  0  0  0  0  0  0  0
    2.4000   -1.3856    0.0000 H   0  0  0  0  0  0  0  0  0  0  0  0
   -0.8000   -1.3856    0.0000 C   0  0  0  0  0  0  0  0  0  0  0  0
    0.0000   -2.7713    0.0000 Br  0  0  0  0  0  0  0  0  0  0  0  0
   -2.4000   -1.3856    0.0000 C   0  0  0  0  0  0  0  0  0  0  0  0
   -3.2000   -2.7713    0.0000 H   0  0  0  0  0  0  0  0  0  0  0  0
   -3.2000   -0.0000    0.0000 C   0  0  0  0  0  0  0  0  0  0  0  0
   -4.8000   -0.0000    0.0000 H   0  0  0  0  0  0  0  0  0  0  0  0
   -2.4000    1.3856    0.0000 C   0  0  0  0  0  0  0  0  0  0  0  0
   -3.2000    2.7713    0.0000 H   0  0  0  0  0  0  0  0  0  0  0  0
  1  2  1  0  0  0  0
  2  3  1  0  0  0  0
  3  4  1  0  0  0  0
  4  5  1  0  0  0  0
  4  6  1  0  0  0  0
  3  7  2  0  0  0  0
  7  8  1  0  0  0  0
  7  9  1  0  0  0  0
  9 10  1  0  0  0  0
  9 11  2  0  0  0  0
 11 12  1  0  0  0  0
 11 13  1  0  0  0  0
 13  2  2  0  0  0  0
 13 14  1  0  0  0  0
M  END
> <ChemID>
102603

> <source_casrn>
608-30-0

> <CAS>
608-30-0

> <SMILES>
Nc1c(Br)cccc1Br

> <NAME>
2,6-Dibromoaniline

> <preferred_name>
2,6-Dibromoaniline

> <iupac>
2,6-DIBROMOANILINE

> <MPID>
21607

> <dsstox_substance_id>
DTXSID10209643

> <Canonical_QSARr>
Nc1c(Br)cccc1Br

> <InChI_Code_QSARr>
InChI=1S/C6H5Br2N/c7-4-2-1-3-5(8)6(4)9/h1-3H,9H2

> <InChI Key_QSARr>
XIRRDAWDNHRRLB-UHFFFAOYSA-N

> <Salt_Solvent>
?

> <BP>
263.0

$$$$
102607
  -INDIGO-08031720192D

 12 12  0  0  0  0  0  0  0  0999 V2000
   -0.0000   -0.0000    0.0000 C   0  0  0  0  0  0  0  0  0  0  0  0
    0.8000   -1.3857    0.0000 C   0  0  0  0  0  0  0  0  0  0  0  0
    2.4000   -1.3857    0.0000 Cl  0  0  0  0  0  0  0  0  0  0  0  0
   -0.0000   -2.7713    0.0000 C   0  0  0  0  0  0  0  0  0  0  0  0
    0.8000   -4.1569    0.0000 Cl  0  0  0  0  0  0  0  0  0  0  0  0
   -1.6000   -2.7713    0.0000 C   0  0  0  0  0  0  0  0  0  0  0  0
   -2.4000   -4.1569    0.0000 Cl  0  0  0  0  0  0  0  0  0  0  0  0
   -2.4000   -1.3856    0.0000 C   0  0  0  0  0  0  0  0  0  0  0  0
   -4.0000   -1.3856    0.0000 Cl  0  0  0  0  0  0  0  0  0  0  0  0
   -1.6000   -0.0000    0.0000 C   0  0  0  0  0  0  0  0  0  0  0  0
   -2.4000    1.3856    0.0000 H   0  0  0  0  0  0  0  0  0  0  0  0
    0.8000    1.3856    0.0000 Cl  0  0  0  0  0  0  0  0  0  0  0  0
  1  2  1  0  0  0  0
  2  3  1  0  0  0  0
  2  4  2  0  0  0  0
  4  5  1  0  0  0  0
  4  6  1  0  0  0  0
  6  7  1  0  0  0  0
  6  8  2  0  0  0  0
  8  9  1  0  0  0  0
  8 10  1  0  0  0  0
 10  1  2  0  0  0  0
 10 11  1  0  0  0  0
  1 12  1  0  0  0  0
M  END
> <ChemID>
102607

> <source_casrn>
608-93-5

> <CAS>
608-93-5

> <SMILES>
Clc1c(Cl)c(Cl)cc(Cl)c1Cl

> <NAME>
PENTACHLOROBENZENE

> <preferred_name>
Pentachlorobenzene

> <iupac>
1,2,3,4,5-pentachlorobenzene

> <MPID>
21611

> <dsstox_substance_id>
DTXSID7024247

> <Canonical_QSARr>
Clc1c(Cl)c(Cl)cc(Cl)c1Cl

> <InChI_Code_QSARr>
InChI=1S/C6HCl5/c7-2-1-3(8)5(10)6(11)4(2)9/h1H

> <InChI Key_QSARr>
CEOCDNVZRAIOQZ-UHFFFAOYSA-N

> <Salt_Solvent>
?

> <BP>
277.0

$$$$
102611
  -INDIGO-08031720192D

 23 22  0  0  0  0  0  0  0  0999 V2000
   -2.7292   -0.4812    0.0000 C   0  0  0  0  0  0  0  0  0  0  0  0
   -2.4514   -2.0569    0.0000 O   0  0  0  0  0  0  0  0  0  0  0  0
   -4.2327    0.0660    0.0000 O   0  0  0  0  0  0  0  0  0  0  0  0
   -5.4583   -0.9625    0.0000 C   0  0  0  0  0  0  0  0  0  0  0  0
   -5.8047   -2.5245    0.0000 H   0  0  0  0  0  0  0  0  0  0  0  0
   -4.5986   -2.3119    0.0000 H   0  0  0  0  0  0  0  0  0  0  0  0
   -6.9618   -0.4153    0.0000 C   0  0  0  0  0  0  0  0  0  0  0  0
   -8.4654    0.1320    0.0000 H   0  0  0  0  0  0  0  0  0  0  0  0
   -8.1876   -1.4437    0.0000 H   0  0  0  0  0  0  0  0  0  0  0  0
   -7.2398    1.1604    0.0000 H   0  0  0  0  0  0  0  0  0  0  0  0
   -1.5036    0.5473    0.0000 C   0  0  0  0  0  0  0  0  0  0  0  0
   -1.1572    2.1093    0.0000 H   0  0  0  0  0  0  0  0  0  0  0  0
   -0.0000    0.0000    0.0000 C   0  0  0  0  0  0  0  0  0  0  0  0
   -0.8001   -1.3856    0.0000 H   0  0  0  0  0  0  0  0  0  0  0  0
    1.3857   -0.8000    0.0000 C   0  0  0  0  0  0  0  0  0  0  0  0
    2.7713   -1.6000    0.0000 H   0  0  0  0  0  0  0  0  0  0  0  0
    1.3857   -2.4000    0.0000 H   0  0  0  0  0  0  0  0  0  0  0  0
    2.7713    0.0000    0.0000 H   0  0  0  0  0  0  0  0  0  0  0  0
    0.8000    1.3857    0.0000 C   0  0  0  0  0  0  0  0  0  0  0  0
    1.6000    2.7713    0.0000 H   0  0  0  0  0  0  0  0  0  0  0  0
   -0.0000    2.7713    0.0000 H   0  0  0  0  0  0  0  0  0  0  0  0
    2.4001    1.3857    0.0000 H   0  0  0  0  0  0  0  0  0  0  0  0
   -2.3633    1.8967    0.0000 Br  0  0  0  0  0  0  0  0  0  0  0  0
  1  2  2  0  0  0  0
  1  3  1  0  0  0  0
  3  4  1  0  0  0  0
  4  5  1  0  0  0  0
  4  6  1  0  0  0  0
  4  7  1  0  0  0  0
  7  8  1  0  0  0  0
  7  9  1  0  0  0  0
  7 10  1  0  0  0  0
  1 11  1  0  0  0  0
 11 12  1  0  0  0  0
 11 13  1  0  0  0  0
 13 14  1  0  0  0  0
 13 15  1  0  0  0  0
 15 16  1  0  0  0  0
 15 17  1  0  0  0  0
 15 18  1  0  0  0  0
 13 19  1  0  0  0  0
 19 20  1  0  0  0  0
 19 21  1  0  0  0  0
 19 22  1  0  0  0  0
 11 23  1  0  0  0  0
M  END
> <ChemID>
102611

> <source_casrn>
609-12-1

> <CAS>
NOCAS_870681

> <SMILES>
CC(C)C(Br)C(=O)OCC

> <NAME>
Butanoic acid, 2-bromo-3-methyl-, ethyl ester

> <preferred_name>


> <iupac>


> <MPID>
21615

> <dsstox_substance_id>
DTXSID20870681

> <Canonical_QSARr>
CC(C)C(Br)C(=O)OCC

> <InChI_Code_QSARr>
InChI=1S/C7H13BrO2/c1-4-10-7(9)6(8)5(2)3/h5-6H,4H2,1-3H3

> <InChI Key_QSARr>
WNFUWONOILPKNX-UHFFFAOYSA-N

> <Salt_Solvent>
?

> <BP>
186.0

$$$$
102615
  -INDIGO-08031720192D

 11 11  0  0  0  0  0  0  0  0999 V2000
   -0.0000    0.0000    0.0000 C   0  0  0  0  0  0  0  0  0  0  0  0
    1.5912    0.1672    0.0000 N   0  0  0  0  0  0  0  0  0  0  0  0
    2.5317   -1.1272    0.0000 O   0  0  0  0  0  0  0  0  0  0  0  0
    2.2421    1.6289    0.0000 O   0  0  0  0  0  0  0  0  0  0  0  0
   -1.0706    1.1891    0.0000 C   0  0  0  0  0  0  0  0  0  0  0  0
   -0.7379    2.7541    0.0000 H   0  0  0  0  0  0  0  0  0  0  0  0
   -2.5322    0.5383    0.0000 C   0  0  0  0  0  0  0  0  0  0  0  0
   -3.9179    1.3382    0.0000 H   0  0  0  0  0  0  0  0  0  0  0  0
   -2.3650   -1.0530    0.0000 C   0  0  0  0  0  0  0  0  0  0  0  0
   -3.5541   -2.1236    0.0000 H   0  0  0  0  0  0  0  0  0  0  0  0
   -0.8000   -1.3856    0.0000 S   0  0  0  0  0  0  0  0  0  0  0  0
  1  2  1  0  0  0  0
  2  3  2  0  0  0  0
  2  4  1  0  0  0  0
  1  5  2  0  0  0  0
  5  6  1  0  0  0  0
  5  7  1  0  0  0  0
  7  8  1  0  0  0  0
  7  9  2  0  0  0  0
  9 10  1  0  0  0  0
  9 11  1  0  0  0  0
 11  1  1  0  0  0  0
M  CHG  2   2   1   4  -1
M  END
> <ChemID>
102615

> <source_casrn>
609-40-5

> <CAS>
609-40-5

> <SMILES>
[O-][N+](=O)c1ccc[s]1

> <NAME>
2-NITROTHIOPHENE

> <preferred_name>
Thiophene, 2-nitro-

> <iupac>
2-Nitrothiophene

> <MPID>
21619

> <dsstox_substance_id>
DTXSID9060570

> <Canonical_QSARr>
[O-][N+](=O)c1ccc[s]1

> <InChI_Code_QSARr>
InChI=1S/C4H3NO2S/c6-5(7)4-2-1-3-8-4/h1-3H

> <InChI Key_QSARr>
JIZRGGUCOQKGQD-UHFFFAOYSA-N

> <Salt_Solvent>
?

> <BP>
224.5

$$$$
102619
  -INDIGO-08031720192D

 18 18  0  0  0  0  0  0  0  0999 V2000
    0.8000    1.3856    0.0000 C   0  0  0  0  0  0  0  0  0  0  0  0
    2.4000    1.3856    0.0000 N   0  0  0  0  0  0  0  0  0  0  0  0
    3.2000    2.7713    0.0000 H   0  0  0  0  0  0  0  0  0  0  0  0
    3.2000    0.0000    0.0000 H   0  0  0  0  0  0  0  0  0  0  0  0
   -0.0000    2.7713    0.0000 O   0  0  0  0  0  0  0  0  0  0  0  0
   -0.0000    0.0000    0.0000 C   0  0  0  0  0  0  0  0  0  0  0  0
    0.8000   -1.3856    0.0000 C   0  0  0  0  0  0  0  0  0  0  0  0
    2.4000   -1.3856    0.0000 H   0  0  0  0  0  0  0  0  0  0  0  0
   -0.0000   -2.7713    0.0000 C   0  0  0  0  0  0  0  0  0  0  0  0
    0.8000   -4.1569    0.0000 H   0  0  0  0  0  0  0  0  0  0  0  0
   -1.6000   -2.7713    0.0000 C   0  0  0  0  0  0  0  0  0  0  0  0
   -2.4000   -4.1569    0.0000 H   0  0  0  0  0  0  0  0  0  0  0  0
   -2.4000   -1.3856    0.0000 C   0  0  0  0  0  0  0  0  0  0  0  0
   -4.0000   -1.3856    0.0000 H   0  0  0  0  0  0  0  0  0  0  0  0
   -1.6000    0.0000    0.0000 C   0  0  0  0  0  0  0  0  0  0  0  0
   -2.4000    1.3856    0.0000 N   0  0  0  0  0  0  0  0  0  0  0  0
   -4.0000    1.3856    0.0000 O   0  0  0  0  0  0  0  0  0  0  0  0
   -1.6000    2.7713    0.0000 O   0  0  0  0  0  0  0  0  0  0  0  0
  1  2  1  0  0  0  0
  2  3  1  0  0  0  0
  2  4  1  0  0  0  0
  1  5  2  0  0  0  0
  1  6  1  0  0  0  0
  6  7  1  0  0  0  0
  7  8  1  0  0  0  0
  7  9  2  0  0  0  0
  9 10  1  0  0  0  0
  9 11  1  0  0  0  0
 11 12  1  0  0  0  0
 11 13  2  0  0  0  0
 13 14  1  0  0  0  0
 13 15  1  0  0  0  0
 15  6  2  0  0  0  0
 15 16  1  0  0  0  0
 16 17  2  0  0  0  0
 16 18  1  0  0  0  0
M  CHG  2  16   1  18  -1
M  END
> <ChemID>
102619

> <source_casrn>
610-15-1

> <CAS>
610-15-1

> <SMILES>
NC(=O)c1ccccc1[N+]([O-])=O

> <NAME>
2-NITROBENZAMIDE

> <preferred_name>
2-Nitrobenzamide

> <iupac>
2-nitrobenzamide

> <MPID>
21623

> <dsstox_substance_id>
DTXSID0025733

> <Canonical_QSARr>
NC(=O)c1ccccc1[N+]([O-])=O

> <InChI_Code_QSARr>
InChI=1S/C7H6N2O3/c8-7(10)5-3-1-2-4-6(5)9(11)12/h1-4H,(H2,8,10)

> <InChI Key_QSARr>
KLGQWSOYKYFBTR-UHFFFAOYSA-N

> <Salt_Solvent>
?

> <BP>
317.0

$$$$
102623
  -INDIGO-08031720192D

 21 21  0  0  0  0  0  0  0  0999 V2000
   -0.8000    1.3857    0.0000 C   0  0  0  0  0  0  0  0  0  0  0  0
    0.0000    0.0000    0.0000 C   0  0  0  0  0  0  0  0  0  0  0  0
    1.6000    0.0000    0.0000 O   0  0  0  0  0  0  0  0  0  0  0  0
    2.3999   -1.3856    0.0000 C   0  0  0  0  0  0  0  0  0  0  0  0
    1.1307   -2.3596    0.0000 H   0  0  0  0  0  0  0  0  0  0  0  0
    2.1911   -2.9720    0.0000 H   0  0  0  0  0  0  0  0  0  0  0  0
    4.0000   -1.3856    0.0000 C   0  0  0  0  0  0  0  0  0  0  0  0
    5.6000   -1.3856    0.0000 H   0  0  0  0  0  0  0  0  0  0  0  0
    4.8000   -2.7713    0.0000 H   0  0  0  0  0  0  0  0  0  0  0  0
    4.8000    0.0000    0.0000 H   0  0  0  0  0  0  0  0  0  0  0  0
   -0.8000   -1.3856    0.0000 C   0  0  0  0  0  0  0  0  0  0  0  0
    0.0000   -2.7713    0.0000 H   0  0  0  0  0  0  0  0  0  0  0  0
   -2.4001   -1.3856    0.0000 C   0  0  0  0  0  0  0  0  0  0  0  0
   -3.2000   -2.7713    0.0000 H   0  0  0  0  0  0  0  0  0  0  0  0
   -3.2000    0.0000    0.0000 C   0  0  0  0  0  0  0  0  0  0  0  0
   -4.8000    0.0000    0.0000 H   0  0  0  0  0  0  0  0  0  0  0  0
   -2.4001    1.3857    0.0000 C   0  0  0  0  0  0  0  0  0  0  0  0
   -3.2000    2.7713    0.0000 H   0  0  0  0  0  0  0  0  0  0  0  0
    0.0000    2.7713    0.0000 N   0  0  0  0  0  0  0  0  0  0  0  0
   -0.8000    4.1569    0.0000 O   0  0  0  0  0  0  0  0  0  0  0  0
    1.6000    2.7713    0.0000 O   0  0  0  0  0  0  0  0  0  0  0  0
  1  2  1  0  0  0  0
  2  3  1  0  0  0  0
  3  4  1  0  0  0  0
  4  5  1  0  0  0  0
  4  6  1  0  0  0  0
  4  7  1  0  0  0  0
  7  8  1  0  0  0  0
  7  9  1  0  0  0  0
  7 10  1  0  0  0  0
  2 11  2  0  0  0  0
 11 12  1  0  0  0  0
 11 13  1  0  0  0  0
 13 14  1  0  0  0  0
 13 15  2  0  0  0  0
 15 16  1  0  0  0  0
 15 17  1  0  0  0  0
 17  1  2  0  0  0  0
 17 18  1  0  0  0  0
  1 19  1  0  0  0  0
 19 20  1  0  0  0  0
 19 21  2  0  0  0  0
M  CHG  2  19   1  20  -1
M  END
> <ChemID>
102623

> <source_casrn>
610-67-3

> <CAS>
610-67-3

> <SMILES>
CCOc1ccccc1[N+]([O-])=O

> <NAME>
Benzene, 1-ethoxy-2-nitro-

> <preferred_name>
Benzene, 1-ethoxy-2-nitro-

> <iupac>
1-Ethoxy-2-nitrobenzene

> <MPID>
21627

> <dsstox_substance_id>
DTXSID8060589

> <Canonical_QSARr>
CCOc1ccccc1[N+]([O-])=O

> <InChI_Code_QSARr>
InChI=1S/C8H9NO3/c1-2-12-8-6-4-3-5-7(8)9(10)11/h3-6H,2H2,1H3

> <InChI Key_QSARr>
XGLGESCVNJSAQY-UHFFFAOYSA-N

> <Salt_Solvent>
?

> <BP>
267.0

$$$$
102627
  -INDIGO-08031720192D

 18 18  0  0  0  0  0  0  0  0999 V2000
    1.3857    2.4000    0.0000 O   0  0  0  0  0  0  0  0  0  0  0  0
    1.3857    0.8000    0.0000 C   0  0  0  0  0  0  0  0  0  0  0  0
    2.7713   -0.0000    0.0000 O   0  0  0  0  0  0  0  0  0  0  0  0
    4.1569    0.8000    0.0000 C   0  0  0  0  0  0  0  0  0  0  0  0
    5.5426    1.6000    0.0000 H   0  0  0  0  0  0  0  0  0  0  0  0
    5.5426   -0.0000    0.0000 H   0  0  0  0  0  0  0  0  0  0  0  0
    4.1569    2.4000    0.0000 H   0  0  0  0  0  0  0  0  0  0  0  0
   -0.0001   -0.0000    0.0000 C   0  0  0  0  0  0  0  0  0  0  0  0
   -0.0001   -1.6000    0.0000 C   0  0  0  0  0  0  0  0  0  0  0  0
    1.3857   -2.4000    0.0000 I   0  0  0  0  0  0  0  0  0  0  0  0
   -1.3857   -2.4000    0.0000 C   0  0  0  0  0  0  0  0  0  0  0  0
   -1.3857   -4.0000    0.0000 H   0  0  0  0  0  0  0  0  0  0  0  0
   -2.7713   -1.6000    0.0000 C   0  0  0  0  0  0  0  0  0  0  0  0
   -4.1569   -2.4000    0.0000 H   0  0  0  0  0  0  0  0  0  0  0  0
   -2.7713   -0.0000    0.0000 C   0  0  0  0  0  0  0  0  0  0  0  0
   -4.1569    0.8000    0.0000 H   0  0  0  0  0  0  0  0  0  0  0  0
   -1.3857    0.8000    0.0000 C   0  0  0  0  0  0  0  0  0  0  0  0
   -1.3857    2.4000    0.0000 H   0  0  0  0  0  0  0  0  0  0  0  0
  1  2  2  0  0  0  0
  2  3  1  0  0  0  0
  3  4  1  0  0  0  0
  4  5  1  0  0  0  0
  4  6  1  0  0  0  0
  4  7  1  0  0  0  0
  2  8  1  0  0  0  0
  8  9  1  0  0  0  0
  9 10  1  0  0  0  0
  9 11  2  0  0  0  0
 11 12  1  0  0  0  0
 11 13  1  0  0  0  0
 13 14  1  0  0  0  0
 13 15  2  0  0  0  0
 15 16  1  0  0  0  0
 15 17  1  0  0  0  0
 17  8  2  0  0  0  0
 17 18  1  0  0  0  0
M  END
> <ChemID>
102627

> <source_casrn>
610-97-9

> <CAS>
610-97-9

> <SMILES>
COC(=O)c1ccccc1I

> <NAME>
BENZOIC ACID, 2-IODO-, METHYL ESTER

> <preferred_name>
Benzoic acid, 2-iodo-, methyl ester

> <iupac>
Methyl 2-iodobenzoate

> <MPID>
21631

> <dsstox_substance_id>
DTXSID7060594

> <Canonical_QSARr>
COC(=O)c1ccccc1I

> <InChI_Code_QSARr>
InChI=1S/C8H7IO2/c1-11-8(10)6-4-2-3-5-7(6)9/h2-5H,1H3

> <InChI Key_QSARr>
BXXLTVBTDZXPTN-UHFFFAOYSA-N

> <Salt_Solvent>
?

> <BP>
280.0

$$$$
102631
  -INDIGO-08031720192D

 15 15  0  0  0  0  0  0  0  0999 V2000
    0.0000   -0.0000    0.0000 C   0  0  0  0  0  0  0  0  0  0  0  0
    1.5912    0.1673    0.0000 C   0  0  0  0  0  0  0  0  0  0  0  0
    2.5317   -1.1272    0.0000 O   0  0  0  0  0  0  0  0  0  0  0  0
    4.1230   -0.9600    0.0000 C   0  0  0  0  0  0  0  0  0  0  0  0
    5.7142   -0.7927    0.0000 H   0  0  0  0  0  0  0  0  0  0  0  0
    5.0634   -2.2544    0.0000 H   0  0  0  0  0  0  0  0  0  0  0  0
    4.7737    0.5017    0.0000 H   0  0  0  0  0  0  0  0  0  0  0  0
    2.2420    1.6289    0.0000 O   0  0  0  0  0  0  0  0  0  0  0  0
   -1.0706    1.1891    0.0000 C   0  0  0  0  0  0  0  0  0  0  0  0
   -0.7379    2.7541    0.0000 H   0  0  0  0  0  0  0  0  0  0  0  0
   -2.5322    0.5382    0.0000 C   0  0  0  0  0  0  0  0  0  0  0  0
   -3.9179    1.3382    0.0000 H   0  0  0  0  0  0  0  0  0  0  0  0
   -2.3650   -1.0530    0.0000 C   0  0  0  0  0  0  0  0  0  0  0  0
   -3.5540   -2.1236    0.0000 H   0  0  0  0  0  0  0  0  0  0  0  0
   -0.8000   -1.3857    0.0000 O   0  0  0  0  0  0  0  0  0  0  0  0
  1  2  1  0  0  0  0
  2  3  1  0  0  0  0
  3  4  1  0  0  0  0
  4  5  1  0  0  0  0
  4  6  1  0  0  0  0
  4  7  1  0  0  0  0
  2  8  2  0  0  0  0
  1  9  2  0  0  0  0
  9 10  1  0  0  0  0
  9 11  1  0  0  0  0
 11 12  1  0  0  0  0
 11 13  2  0  0  0  0
 13 14  1  0  0  0  0
 13 15  1  0  0  0  0
 15  1  1  0  0  0  0
M  END
> <ChemID>
102631

> <source_casrn>
611-13-2

> <CAS>
611-13-2

> <SMILES>
COC(=O)c1ccco1

> <NAME>
FUROIC ACID, METHYL ESTER

> <preferred_name>
2-Furancarboxylic acid, methyl ester

> <iupac>
methyl furan-2-carboxylate

> <MPID>
21635

> <dsstox_substance_id>
DTXSID7060598

> <Canonical_QSARr>
COC(=O)c1ccco1

> <InChI_Code_QSARr>
InChI=1S/C6H6O3/c1-8-6(7)5-3-2-4-9-5/h2-4H,1H3

> <InChI Key_QSARr>
HDJLSECJEQSPKW-UHFFFAOYSA-N

> <Salt_Solvent>
?

> <BP>
181.3

$$$$
102635
  -INDIGO-08031720192D

 20 20  0  0  0  0  0  0  0  0999 V2000
    1.6000    0.0000    0.0000 N   0  0  0  0  0  0  0  0  0  0  0  0
    2.4001    1.3856    0.0000 H   0  0  0  0  0  0  0  0  0  0  0  0
   -0.0000    0.0000    0.0000 C   0  0  0  0  0  0  0  0  0  0  0  0
   -0.8000    1.3856    0.0000 C   0  0  0  0  0  0  0  0  0  0  0  0
   -0.0000    2.7713    0.0000 C   0  0  0  0  0  0  0  0  0  0  0  0
    0.8000    4.1569    0.0000 H   0  0  0  0  0  0  0  0  0  0  0  0
   -0.8000    4.1569    0.0000 H   0  0  0  0  0  0  0  0  0  0  0  0
    1.6000    2.7713    0.0000 H   0  0  0  0  0  0  0  0  0  0  0  0
   -2.4000    1.3856    0.0000 C   0  0  0  0  0  0  0  0  0  0  0  0
   -3.2001    2.7713    0.0000 H   0  0  0  0  0  0  0  0  0  0  0  0
   -3.2001    0.0000    0.0000 C   0  0  0  0  0  0  0  0  0  0  0  0
   -4.8000    0.0000    0.0000 H   0  0  0  0  0  0  0  0  0  0  0  0
   -2.4000   -1.3856    0.0000 C   0  0  0  0  0  0  0  0  0  0  0  0
   -3.2001   -2.7713    0.0000 H   0  0  0  0  0  0  0  0  0  0  0  0
   -0.8000   -1.3856    0.0000 C   0  0  0  0  0  0  0  0  0  0  0  0
   -0.0000   -2.7713    0.0000 H   0  0  0  0  0  0  0  0  0  0  0  0
    2.4001   -1.3856    0.0000 C   0  0  0  0  0  0  0  0  0  0  0  0
    3.2000   -2.7713    0.0000 H   0  0  0  0  0  0  0  0  0  0  0  0
    4.0000   -1.3856    0.0000 H   0  0  0  0  0  0  0  0  0  0  0  0
    1.6000   -2.7713    0.0000 H   0  0  0  0  0  0  0  0  0  0  0  0
  1  2  1  0  0  0  0
  1  3  1  0  0  0  0
  3  4  1  0  0  0  0
  4  5  1  0  0  0  0
  5  6  1  0  0  0  0
  5  7  1  0  0  0  0
  5  8  1  0  0  0  0
  4  9  2  0  0  0  0
  9 10  1  0  0  0  0
  9 11  1  0  0  0  0
 11 12  1  0  0  0  0
 11 13  2  0  0  0  0
 13 14  1  0  0  0  0
 13 15  1  0  0  0  0
 15  3  2  0  0  0  0
 15 16  1  0  0  0  0
  1 17  1  0  0  0  0
 17 18  1  0  0  0  0
 17 19  1  0  0  0  0
 17 20  1  0  0  0  0
M  END
> <ChemID>
102635

> <source_casrn>
611-21-2

> <CAS>
611-21-2

> <SMILES>
Cc1ccccc1NC

> <NAME>
N-METHYL-O-TOLUIDINE

> <preferred_name>
Benzenamine, N,2-dimethyl-

> <iupac>
N,2-Dimethylaniline

> <MPID>
21639

> <dsstox_substance_id>
DTXSID4060600

> <Canonical_QSARr>
Cc1ccccc1NC

> <InChI_Code_QSARr>
InChI=1S/C8H11N/c1-7-5-3-4-6-8(7)9-2/h3-6,9H,1-2H3

> <InChI Key_QSARr>
GUAWMXYQZKVRCW-UHFFFAOYSA-N

> <Salt_Solvent>
?

> <BP>
207.5

$$$$
102639
  -INDIGO-08031720192D

 17 18  0  0  0  0  0  0  0  0999 V2000
   -1.3856   -2.4000    0.0000 Cl  0  0  0  0  0  0  0  0  0  0  0  0
   -1.3856   -0.8000    0.0000 C   0  0  0  0  0  0  0  0  0  0  0  0
    0.0001    0.0000    0.0000 C   0  0  0  0  0  0  0  0  0  0  0  0
    0.0001    1.6000    0.0000 C   0  0  0  0  0  0  0  0  0  0  0  0
    1.3856    2.4000    0.0000 C   0  0  0  0  0  0  0  0  0  0  0  0
    1.3856    4.0000    0.0000 H   0  0  0  0  0  0  0  0  0  0  0  0
    2.7713    1.6000    0.0000 C   0  0  0  0  0  0  0  0  0  0  0  0
    4.1569    2.4000    0.0000 H   0  0  0  0  0  0  0  0  0  0  0  0
    2.7713    0.0000    0.0000 C   0  0  0  0  0  0  0  0  0  0  0  0
    4.1569   -0.8000    0.0000 H   0  0  0  0  0  0  0  0  0  0  0  0
    1.3856   -0.8000    0.0000 C   0  0  0  0  0  0  0  0  0  0  0  0
    1.3856   -2.4000    0.0000 H   0  0  0  0  0  0  0  0  0  0  0  0
   -1.3856    2.4000    0.0000 N   0  0  0  0  0  0  0  0  0  0  0  0
   -2.7712    1.6000    0.0000 C   0  0  0  0  0  0  0  0  0  0  0  0
   -4.1569    2.4000    0.0000 H   0  0  0  0  0  0  0  0  0  0  0  0
   -2.7712    0.0000    0.0000 C   0  0  0  0  0  0  0  0  0  0  0  0
   -4.1569   -0.8000    0.0000 H   0  0  0  0  0  0  0  0  0  0  0  0
  1  2  1  0  0  0  0
  2  3  1  0  0  0  0
  3  4  1  0  0  0  0
  4  5  2  0  0  0  0
  5  6  1  0  0  0  0
  5  7  1  0  0  0  0
  7  8  1  0  0  0  0
  7  9  2  0  0  0  0
  9 10  1  0  0  0  0
  9 11  1  0  0  0  0
 11  3  2  0  0  0  0
 11 12  1  0  0  0  0
  4 13  1  0  0  0  0
 13 14  2  0  0  0  0
 14 15  1  0  0  0  0
 14 16  1  0  0  0  0
 16  2  2  0  0  0  0
 16 17  1  0  0  0  0
M  END
> <ChemID>
102639

> <source_casrn>
611-35-8

> <CAS>
611-35-8

> <SMILES>
Clc1cc[n]c2ccccc21

> <NAME>
4-Chloroquinoline

> <preferred_name>
4-Chloroquinoline

> <iupac>
4-Chloroquinoline

> <MPID>
21643

> <dsstox_substance_id>
DTXSID40209979

> <Canonical_QSARr>
Clc1cc[n]c2ccccc21

> <InChI_Code_QSARr>
InChI=1S/C9H6ClN/c10-8-5-6-11-9-4-2-1-3-7(8)9/h1-6H

> <InChI Key_QSARr>
KNDOFJFSHZCKGT-UHFFFAOYSA-N

> <Salt_Solvent>
?

> <BP>
262.0

$$$$
102644
  -INDIGO-08031720192D

 34 35  0  0  0  0  0  0  0  0999 V2000
    1.3855   -0.8001    0.0000 C   0  0  0  0  0  0  0  0  0  0  0  0
    1.3855   -2.4001    0.0000 O   0  0  0  0  0  0  0  0  0  0  0  0
    2.7713    0.0000    0.0000 N   0  0  0  0  0  0  0  0  0  0  0  0
    2.7713    1.6000    0.0000 C   0  0  0  0  0  0  0  0  0  0  0  0
    4.1568    2.4001    0.0000 H   0  0  0  0  0  0  0  0  0  0  0  0
    2.7713    3.2000    0.0000 H   0  0  0  0  0  0  0  0  0  0  0  0
    4.1568    0.8001    0.0000 H   0  0  0  0  0  0  0  0  0  0  0  0
    4.1570   -0.7999    0.0000 C   0  0  0  0  0  0  0  0  0  0  0  0
    4.1570   -2.4001    0.0000 C   0  0  0  0  0  0  0  0  0  0  0  0
    2.7713   -3.2000    0.0000 H   0  0  0  0  0  0  0  0  0  0  0  0
    5.5426   -3.2000    0.0000 C   0  0  0  0  0  0  0  0  0  0  0  0
    5.5426   -4.8000    0.0000 H   0  0  0  0  0  0  0  0  0  0  0  0
    6.9283   -2.3999    0.0000 C   0  0  0  0  0  0  0  0  0  0  0  0
    8.3138   -3.2000    0.0000 H   0  0  0  0  0  0  0  0  0  0  0  0
    6.9281   -0.7999    0.0000 C   0  0  0  0  0  0  0  0  0  0  0  0
    8.3138    0.0000    0.0000 H   0  0  0  0  0  0  0  0  0  0  0  0
    5.5426    0.0000    0.0000 C   0  0  0  0  0  0  0  0  0  0  0  0
    5.5426    1.6000    0.0000 H   0  0  0  0  0  0  0  0  0  0  0  0
    0.0000    0.0000    0.0000 N   0  0  0  0  0  0  0  0  0  0  0  0
    0.0000    1.6000    0.0000 C   0  0  0  0  0  0  0  0  0  0  0  0
    0.0000    3.2000    0.0000 H   0  0  0  0  0  0  0  0  0  0  0  0
    1.3855    2.4001    0.0000 H   0  0  0  0  0  0  0  0  0  0  0  0
   -1.3857    2.4001    0.0000 H   0  0  0  0  0  0  0  0  0  0  0  0
   -1.3857   -0.7999    0.0000 C   0  0  0  0  0  0  0  0  0  0  0  0
   -2.7713    0.0000    0.0000 C   0  0  0  0  0  0  0  0  0  0  0  0
   -2.7713    1.6000    0.0000 H   0  0  0  0  0  0  0  0  0  0  0  0
   -4.1570   -0.7999    0.0000 C   0  0  0  0  0  0  0  0  0  0  0  0
   -5.5426    0.0000    0.0000 H   0  0  0  0  0  0  0  0  0  0  0  0
   -4.1570   -2.3999    0.0000 C   0  0  0  0  0  0  0  0  0  0  0  0
   -5.5426   -3.2000    0.0000 H   0  0  0  0  0  0  0  0  0  0  0  0
   -2.7713   -3.2000    0.0000 C   0  0  0  0  0  0  0  0  0  0  0  0
   -2.7713   -4.8000    0.0000 H   0  0  0  0  0  0  0  0  0  0  0  0
   -1.3857   -2.3999    0.0000 C   0  0  0  0  0  0  0  0  0  0  0  0
    0.0000   -3.2000    0.0000 H   0  0  0  0  0  0  0  0  0  0  0  0
  1  2  2  0  0  0  0
  1  3  1  0  0  0  0
  3  4  1  0  0  0  0
  4  5  1  0  0  0  0
  4  6  1  0  0  0  0
  4  7  1  0  0  0  0
  3  8  1  0  0  0  0
  8  9  1  0  0  0  0
  9 10  1  0  0  0  0
  9 11  2  0  0  0  0
 11 12  1  0  0  0  0
 11 13  1  0  0  0  0
 13 14  1  0  0  0  0
 13 15  2  0  0  0  0
 15 16  1  0  0  0  0
 15 17  1  0  0  0  0
 17  8  2  0  0  0  0
 17 18  1  0  0  0  0
  1 19  1  0  0  0  0
 19 20  1  0  0  0  0
 20 21  1  0  0  0  0
 20 22  1  0  0  0  0
 20 23  1  0  0  0  0
 19 24  1  0  0  0  0
 24 25  1  0  0  0  0
 25 26  1  0  0  0  0
 25 27  2  0  0  0  0
 27 28  1  0  0  0  0
 27 29  1  0  0  0  0
 29 30  1  0  0  0  0
 29 31  2  0  0  0  0
 31 32  1  0  0  0  0
 31 33  1  0  0  0  0
 33 24  2  0  0  0  0
 33 34  1  0  0  0  0
M  END
> <ChemID>
102644

> <source_casrn>
611-92-7

> <CAS>
611-92-7

> <SMILES>
CN(C(=O)N(C)c1ccccc1)c1ccccc1

> <NAME>
Urea, N,N'-dimethyl-N,N'-diphenyl-

> <preferred_name>
1,3-Dimethyl-1,3-diphenylurea

> <iupac>
1,3-dimethyl-1,3-diphenylurea

> <MPID>
21647

> <dsstox_substance_id>
DTXSID3044964

> <Canonical_QSARr>
CN(C(=O)N(C)c1ccccc1)c1ccccc1

> <InChI_Code_QSARr>
InChI=1S/C15H16N2O/c1-16(13-9-5-3-6-10-13)15(18)17(2)14-11-7-4-8-12-14/h3-12H,1-2H3

> <InChI Key_QSARr>
ADCBKYIHQQCFHE-UHFFFAOYSA-N

> <Salt_Solvent>
?

> <BP>
350.0

$$$$
102648
  -INDIGO-08031720192D

 18 18  0  0  0  0  0  0  0  0999 V2000
    0.0000   -0.0000    0.0000 C   0  0  0  0  0  0  0  0  0  0  0  0
    0.0000   -1.6000    0.0000 C   0  0  0  0  0  0  0  0  0  0  0  0
    1.3856   -2.4000    0.0000 C   0  0  0  0  0  0  0  0  0  0  0  0
    2.7713   -3.2000    0.0000 H   0  0  0  0  0  0  0  0  0  0  0  0
    1.3856   -4.0000    0.0000 H   0  0  0  0  0  0  0  0  0  0  0  0
    2.7713   -1.6000    0.0000 Cl  0  0  0  0  0  0  0  0  0  0  0  0
   -1.3856   -2.4000    0.0000 C   0  0  0  0  0  0  0  0  0  0  0  0
   -1.3856   -4.0000    0.0000 H   0  0  0  0  0  0  0  0  0  0  0  0
   -2.7713   -1.6000    0.0000 C   0  0  0  0  0  0  0  0  0  0  0  0
   -4.1569   -2.4000    0.0000 H   0  0  0  0  0  0  0  0  0  0  0  0
   -2.7713   -0.0000    0.0000 C   0  0  0  0  0  0  0  0  0  0  0  0
   -4.1569    0.8000    0.0000 H   0  0  0  0  0  0  0  0  0  0  0  0
   -1.3856    0.8000    0.0000 C   0  0  0  0  0  0  0  0  0  0  0  0
   -1.3856    2.4000    0.0000 H   0  0  0  0  0  0  0  0  0  0  0  0
    1.3856    0.8000    0.0000 C   0  0  0  0  0  0  0  0  0  0  0  0
    2.7713    1.6000    0.0000 H   0  0  0  0  0  0  0  0  0  0  0  0
    1.3856    2.4000    0.0000 H   0  0  0  0  0  0  0  0  0  0  0  0
    2.7713   -0.0000    0.0000 Cl  0  0  0  0  0  0  0  0  0  0  0  0
  1  2  1  0  0  0  0
  2  3  1  0  0  0  0
  3  4  1  0  0  0  0
  3  5  1  0  0  0  0
  3  6  1  0  0  0  0
  2  7  2  0  0  0  0
  7  8  1  0  0  0  0
  7  9  1  0  0  0  0
  9 10  1  0  0  0  0
  9 11  2  0  0  0  0
 11 12  1  0  0  0  0
 11 13  1  0  0  0  0
 13  1  2  0  0  0  0
 13 14  1  0  0  0  0
  1 15  1  0  0  0  0
 15 16  1  0  0  0  0
 15 17  1  0  0  0  0
 15 18  1  0  0  0  0
M  END
> <ChemID>
102648

> <source_casrn>
612-12-4

> <CAS>
612-12-4

> <SMILES>
ClCc1ccccc1CCl

> <NAME>
Benzene, 1,2-bis(chloromethyl)-

> <preferred_name>
1,2-Bis(chloromethyl)benzene

> <iupac>
1,2-bis(chloromethyl)benzene

> <MPID>
21651

> <dsstox_substance_id>
DTXSID7052284

> <Canonical_QSARr>
ClCc1ccccc1CCl

> <InChI_Code_QSARr>
InChI=1S/C8H8Cl2/c9-5-7-3-1-2-4-8(7)6-10/h1-4H,5-6H2

> <InChI Key_QSARr>
FMGGHNGKHRCJLL-UHFFFAOYSA-N

> <Salt_Solvent>
?

> <BP>
239.5

$$$$
102652
  -INDIGO-08031720192D

 20 21  0  0  0  0  0  0  0  0999 V2000
    0.0001   -0.0000    0.0000 C   0  0  0  0  0  0  0  0  0  0  0  0
    1.3856    0.8000    0.0000 C   0  0  0  0  0  0  0  0  0  0  0  0
    1.3856    2.4000    0.0000 H   0  0  0  0  0  0  0  0  0  0  0  0
    2.7713   -0.0000    0.0000 C   0  0  0  0  0  0  0  0  0  0  0  0
    4.1569    0.8000    0.0000 H   0  0  0  0  0  0  0  0  0  0  0  0
    2.7713   -1.6000    0.0000 C   0  0  0  0  0  0  0  0  0  0  0  0
    4.1569   -2.4000    0.0000 H   0  0  0  0  0  0  0  0  0  0  0  0
    1.3856   -2.4000    0.0000 C   0  0  0  0  0  0  0  0  0  0  0  0
    1.3856   -4.0000    0.0000 H   0  0  0  0  0  0  0  0  0  0  0  0
    0.0001   -1.6000    0.0000 C   0  0  0  0  0  0  0  0  0  0  0  0
   -1.3856   -2.4000    0.0000 C   0  0  0  0  0  0  0  0  0  0  0  0
   -0.3572   -3.6257    0.0000 H   0  0  0  0  0  0  0  0  0  0  0  0
   -2.4141   -3.6257    0.0000 H   0  0  0  0  0  0  0  0  0  0  0  0
   -2.7712   -1.6000    0.0000 C   0  0  0  0  0  0  0  0  0  0  0  0
   -4.1569   -2.4000    0.0000 H   0  0  0  0  0  0  0  0  0  0  0  0
   -2.7712   -0.0000    0.0000 C   0  0  0  0  0  0  0  0  0  0  0  0
   -4.1569    0.8000    0.0000 H   0  0  0  0  0  0  0  0  0  0  0  0
   -1.3856    0.8000    0.0000 C   0  0  0  0  0  0  0  0  0  0  0  0
   -2.4141    2.0257    0.0000 H   0  0  0  0  0  0  0  0  0  0  0  0
   -0.3572    2.0257    0.0000 H   0  0  0  0  0  0  0  0  0  0  0  0
  1  2  1  0  0  0  0
  2  3  1  0  0  0  0
  2  4  2  0  0  0  0
  4  5  1  0  0  0  0
  4  6  1  0  0  0  0
  6  7  1  0  0  0  0
  6  8  2  0  0  0  0
  8  9  1  0  0  0  0
  8 10  1  0  0  0  0
 10  1  2  0  0  0  0
 10 11  1  0  0  0  0
 11 12  1  0  0  0  0
 11 13  1  0  0  0  0
 11 14  1  0  0  0  0
 14 15  1  0  0  0  0
 14 16  2  0  0  0  0
 16 17  1  0  0  0  0
 16 18  1  0  0  0  0
 18  1  1  0  0  0  0
 18 19  1  0  0  0  0
 18 20  1  0  0  0  0
M  END
> <ChemID>
102652

> <source_casrn>
612-17-9

> <CAS>
612-17-9

> <SMILES>
C1C=CCc2ccccc21

> <NAME>
Naphthalene, 1,4-dihydro-

> <preferred_name>
1,4-Dihydronaphthalene

> <iupac>
1,4-Dihydronaphthalene

> <MPID>
21655

> <dsstox_substance_id>
DTXSID9060607

> <Canonical_QSARr>
C1C=CCc2ccccc21

> <InChI_Code_QSARr>
InChI=1S/C10H10/c1-2-6-10-8-4-3-7-9(10)5-1/h1-6H,7-8H2

> <InChI Key_QSARr>
FUPIVZHYVSCYLX-UHFFFAOYSA-N

> <Salt_Solvent>
?

> <BP>
211.5

$$$$
102656
  -INDIGO-08031720192D

 20 21  0  0  0  0  0  0  0  0999 V2000
   -1.3857    2.4000    0.0000 N   0  0  0  0  0  0  0  0  0  0  0  0
    0.0001    1.6000    0.0000 C   0  0  0  0  0  0  0  0  0  0  0  0
    0.0001    0.0000    0.0000 C   0  0  0  0  0  0  0  0  0  0  0  0
    1.3857   -0.8000    0.0000 C   0  0  0  0  0  0  0  0  0  0  0  0
    1.3857   -2.4000    0.0000 H   0  0  0  0  0  0  0  0  0  0  0  0
    2.7713    0.0000    0.0000 C   0  0  0  0  0  0  0  0  0  0  0  0
    4.1569   -0.8000    0.0000 H   0  0  0  0  0  0  0  0  0  0  0  0
    2.7713    1.6000    0.0000 C   0  0  0  0  0  0  0  0  0  0  0  0
    4.1569    2.4000    0.0000 H   0  0  0  0  0  0  0  0  0  0  0  0
    1.3857    2.4000    0.0000 C   0  0  0  0  0  0  0  0  0  0  0  0
    1.3857    4.0000    0.0000 H   0  0  0  0  0  0  0  0  0  0  0  0
   -1.3857   -0.8000    0.0000 C   0  0  0  0  0  0  0  0  0  0  0  0
   -1.3857   -2.4000    0.0000 H   0  0  0  0  0  0  0  0  0  0  0  0
   -2.7713    0.0000    0.0000 C   0  0  0  0  0  0  0  0  0  0  0  0
   -4.1569   -0.8000    0.0000 C   0  0  0  0  0  0  0  0  0  0  0  0
   -5.5426   -1.6000    0.0000 H   0  0  0  0  0  0  0  0  0  0  0  0
   -5.5426    0.0000    0.0000 H   0  0  0  0  0  0  0  0  0  0  0  0
   -4.1569   -2.4000    0.0000 H   0  0  0  0  0  0  0  0  0  0  0  0
   -2.7713    1.6000    0.0000 C   0  0  0  0  0  0  0  0  0  0  0  0
   -4.1569    2.4000    0.0000 H   0  0  0  0  0  0  0  0  0  0  0  0
  1  2  1  0  0  0  0
  2  3  1  0  0  0  0
  3  4  2  0  0  0  0
  4  5  1  0  0  0  0
  4  6  1  0  0  0  0
  6  7  1  0  0  0  0
  6  8  2  0  0  0  0
  8  9  1  0  0  0  0
  8 10  1  0  0  0  0
 10  2  2  0  0  0  0
 10 11  1  0  0  0  0
  3 12  1  0  0  0  0
 12 13  1  0  0  0  0
 12 14  2  0  0  0  0
 14 15  1  0  0  0  0
 15 16  1  0  0  0  0
 15 17  1  0  0  0  0
 15 18  1  0  0  0  0
 14 19  1  0  0  0  0
 19  1  2  0  0  0  0
 19 20  1  0  0  0  0
M  END
> <ChemID>
102656

> <source_casrn>
612-58-8

> <CAS>
612-58-8

> <SMILES>
Cc1cc2ccccc2[n]c1

> <NAME>
3-METHYLQUINOLINE

> <preferred_name>
3-Methylquinoline

> <iupac>
3-METHYLQUINOLINE

> <MPID>
21659

> <dsstox_substance_id>
DTXSID60210108

> <Canonical_QSARr>
Cc1cc2ccccc2[n]c1

> <InChI_Code_QSARr>
InChI=1S/C10H9N/c1-8-6-9-4-2-3-5-10(9)11-7-8/h2-7H,1H3

> <InChI Key_QSARr>
DTBDAFLSBDGPEA-UHFFFAOYSA-N

> <Salt_Solvent>
?

> <BP>
259.8

$$$$
102660
  -INDIGO-08031720192D

 28 29  0  0  0  0  0  0  0  0999 V2000
   -0.0001   -0.0001    0.0000 C   0  0  0  0  0  0  0  0  0  0  0  0
    1.6001   -0.0001    0.0000 C   0  0  0  0  0  0  0  0  0  0  0  0
    2.4001   -1.3856    0.0000 C   0  0  0  0  0  0  0  0  0  0  0  0
    1.6001   -2.7713    0.0000 H   0  0  0  0  0  0  0  0  0  0  0  0
    4.0000   -1.3856    0.0000 C   0  0  0  0  0  0  0  0  0  0  0  0
    4.8000   -2.7712    0.0000 C   0  0  0  0  0  0  0  0  0  0  0  0
    5.6000   -4.1569    0.0000 H   0  0  0  0  0  0  0  0  0  0  0  0
    6.4000   -2.7712    0.0000 H   0  0  0  0  0  0  0  0  0  0  0  0
    4.0000   -4.1569    0.0000 H   0  0  0  0  0  0  0  0  0  0  0  0
    4.8000    0.0001    0.0000 C   0  0  0  0  0  0  0  0  0  0  0  0
    6.4000    0.0001    0.0000 H   0  0  0  0  0  0  0  0  0  0  0  0
    4.0000    1.3856    0.0000 C   0  0  0  0  0  0  0  0  0  0  0  0
    4.8000    2.7713    0.0000 H   0  0  0  0  0  0  0  0  0  0  0  0
    2.4001    1.3856    0.0000 C   0  0  0  0  0  0  0  0  0  0  0  0
    1.6001    2.7713    0.0000 H   0  0  0  0  0  0  0  0  0  0  0  0
   -0.8001    1.3856    0.0000 C   0  0  0  0  0  0  0  0  0  0  0  0
   -0.0001    2.7713    0.0000 H   0  0  0  0  0  0  0  0  0  0  0  0
   -2.4000    1.3856    0.0000 C   0  0  0  0  0  0  0  0  0  0  0  0
   -3.2000    2.7713    0.0000 C   0  0  0  0  0  0  0  0  0  0  0  0
   -4.0000    4.1569    0.0000 H   0  0  0  0  0  0  0  0  0  0  0  0
   -4.8000    2.7713    0.0000 H   0  0  0  0  0  0  0  0  0  0  0  0
   -2.4000    4.1569    0.0000 H   0  0  0  0  0  0  0  0  0  0  0  0
   -3.2000   -0.0001    0.0000 C   0  0  0  0  0  0  0  0  0  0  0  0
   -4.8000   -0.0001    0.0000 H   0  0  0  0  0  0  0  0  0  0  0  0
   -2.4000   -1.3856    0.0000 C   0  0  0  0  0  0  0  0  0  0  0  0
   -3.2000   -2.7712    0.0000 H   0  0  0  0  0  0  0  0  0  0  0  0
   -0.8001   -1.3856    0.0000 C   0  0  0  0  0  0  0  0  0  0  0  0
   -0.0001   -2.7712    0.0000 H   0  0  0  0  0  0  0  0  0  0  0  0
  1  2  1  0  0  0  0
  2  3  1  0  0  0  0
  3  4  1  0  0  0  0
  3  5  2  0  0  0  0
  5  6  1  0  0  0  0
  6  7  1  0  0  0  0
  6  8  1  0  0  0  0
  6  9  1  0  0  0  0
  5 10  1  0  0  0  0
 10 11  1  0  0  0  0
 10 12  2  0  0  0  0
 12 13  1  0  0  0  0
 12 14  1  0  0  0  0
 14  2  2  0  0  0  0
 14 15  1  0  0  0  0
  1 16  1  0  0  0  0
 16 17  1  0  0  0  0
 16 18  2  0  0  0  0
 18 19  1  0  0  0  0
 19 20  1  0  0  0  0
 19 21  1  0  0  0  0
 19 22  1  0  0  0  0
 18 23  1  0  0  0  0
 23 24  1  0  0  0  0
 23 25  2  0  0  0  0
 25 26  1  0  0  0  0
 25 27  1  0  0  0  0
 27  1  2  0  0  0  0
 27 28  1  0  0  0  0
M  END
> <ChemID>
102660

> <source_casrn>
612-75-9

> <CAS>
612-75-9

> <SMILES>
Cc1cc(ccc1)-c1cc(C)ccc1

> <NAME>
3,3'-DIMETHYLBIPHENYL

> <preferred_name>
3,3'-Dimethylbiphenyl

> <iupac>
1-methyl-3-(3-methylphenyl)benzene

> <MPID>
21663

> <dsstox_substance_id>
DTXSID90210111

> <Canonical_QSARr>
Cc1cc(ccc1)-c1cc(C)ccc1

> <InChI_Code_QSARr>
InChI=1S/C14H14/c1-11-5-3-7-13(9-11)14-8-4-6-12(2)10-14/h3-10H,1-2H3

> <InChI Key_QSARr>
GVEDOIATHPCYGS-UHFFFAOYSA-N

> <Salt_Solvent>
?

> <BP>
280.0

$$$$
102664
  -INDIGO-08031720192D

 30 30  0  0  0  0  0  0  0  0999 V2000
    0.8000    1.3857    0.0000 C   0  0  0  0  0  0  0  0  0  0  0  0
   -0.0001    2.7713    0.0000 C   0  0  0  0  0  0  0  0  0  0  0  0
    0.8000    4.1569    0.0000 H   0  0  0  0  0  0  0  0  0  0  0  0
   -1.5999    2.7713    0.0000 C   0  0  0  0  0  0  0  0  0  0  0  0
   -2.4000    4.1569    0.0000 H   0  0  0  0  0  0  0  0  0  0  0  0
   -2.4000    1.3857    0.0000 C   0  0  0  0  0  0  0  0  0  0  0  0
   -4.0000    1.3857    0.0000 O   0  0  0  0  0  0  0  0  0  0  0  0
   -4.8001    2.7713    0.0000 C   0  0  0  0  0  0  0  0  0  0  0  0
   -4.0000    4.1569    0.0000 O   0  0  0  0  0  0  0  0  0  0  0  0
   -6.3999    2.7713    0.0000 C   0  0  0  0  0  0  0  0  0  0  0  0
   -8.0000    2.7713    0.0000 H   0  0  0  0  0  0  0  0  0  0  0  0
   -7.2000    4.1569    0.0000 H   0  0  0  0  0  0  0  0  0  0  0  0
   -7.2000    1.3857    0.0000 H   0  0  0  0  0  0  0  0  0  0  0  0
   -1.5999    0.0001    0.0000 C   0  0  0  0  0  0  0  0  0  0  0  0
   -2.4000   -1.3857    0.0000 H   0  0  0  0  0  0  0  0  0  0  0  0
   -0.0001    0.0001    0.0000 C   0  0  0  0  0  0  0  0  0  0  0  0
    0.8000   -1.3857    0.0000 O   0  0  0  0  0  0  0  0  0  0  0  0
   -0.0001   -2.7713    0.0000 C   0  0  0  0  0  0  0  0  0  0  0  0
   -1.5999   -2.7713    0.0000 O   0  0  0  0  0  0  0  0  0  0  0  0
    0.8000   -4.1569    0.0000 C   0  0  0  0  0  0  0  0  0  0  0  0
    1.6000   -5.5426    0.0000 H   0  0  0  0  0  0  0  0  0  0  0  0
   -0.0001   -5.5426    0.0000 H   0  0  0  0  0  0  0  0  0  0  0  0
    2.4000   -4.1569    0.0000 H   0  0  0  0  0  0  0  0  0  0  0  0
    2.4000    1.3857    0.0000 O   0  0  0  0  0  0  0  0  0  0  0  0
    3.2001    2.7713    0.0000 C   0  0  0  0  0  0  0  0  0  0  0  0
    2.4000    4.1569    0.0000 O   0  0  0  0  0  0  0  0  0  0  0  0
    4.7999    2.7713    0.0000 C   0  0  0  0  0  0  0  0  0  0  0  0
    6.4000    2.7713    0.0000 H   0  0  0  0  0  0  0  0  0  0  0  0
    5.6000    4.1569    0.0000 H   0  0  0  0  0  0  0  0  0  0  0  0
    5.6000    1.3857    0.0000 H   0  0  0  0  0  0  0  0  0  0  0  0
  1  2  1  0  0  0  0
  2  3  1  0  0  0  0
  2  4  2  0  0  0  0
  4  5  1  0  0  0  0
  4  6  1  0  0  0  0
  6  7  1  0  0  0  0
  7  8  1  0  0  0  0
  8  9  2  0  0  0  0
  8 10  1  0  0  0  0
 10 11  1  0  0  0  0
 10 12  1  0  0  0  0
 10 13  1  0  0  0  0
  6 14  2  0  0  0  0
 14 15  1  0  0  0  0
 14 16  1  0  0  0  0
 16  1  2  0  0  0  0
 16 17  1  0  0  0  0
 17 18  1  0  0  0  0
 18 19  2  0  0  0  0
 18 20  1  0  0  0  0
 20 21  1  0  0  0  0
 20 22  1  0  0  0  0
 20 23  1  0  0  0  0
  1 24  1  0  0  0  0
 24 25  1  0  0  0  0
 25 26  2  0  0  0  0
 25 27  1  0  0  0  0
 27 28  1  0  0  0  0
 27 29  1  0  0  0  0
 27 30  1  0  0  0  0
M  END
> <ChemID>
102664

> <source_casrn>
613-03-6

> <CAS>
NOCAS_862288

> <SMILES>
CC(=O)Oc1ccc(cc1OC(C)=O)OC(C)=O

> <NAME>
1,2,4-Benzenetriol, triacetate

> <preferred_name>


> <iupac>


> <MPID>
21667

> <dsstox_substance_id>
DTXSID20862288

> <Canonical_QSARr>
CC(=O)Oc1ccc(cc1OC(C)=O)OC(C)=O

> <InChI_Code_QSARr>
InChI=1S/C12H12O6/c1-7(13)16-10-4-5-11(17-8(2)14)12(6-10)18-9(3)15/h4-6H,1-3H3

> <InChI Key_QSARr>
AESFGSJWSUZRGW-UHFFFAOYSA-N

> <Salt_Solvent>
?

> <BP>
300.0

$$$$
102669
  -INDIGO-08031720192D

 19 20  0  0  0  0  0  0  0  0999 V2000
   -0.0001   -0.0000    0.0000 C   0  0  0  0  0  0  0  0  0  0  0  0
    1.3857    0.8000    0.0000 C   0  0  0  0  0  0  0  0  0  0  0  0
    1.3857    2.4000    0.0000 H   0  0  0  0  0  0  0  0  0  0  0  0
    2.7713   -0.0000    0.0000 C   0  0  0  0  0  0  0  0  0  0  0  0
    4.1569    0.8000    0.0000 C   0  0  0  0  0  0  0  0  0  0  0  0
    5.5426    1.6000    0.0000 N   0  0  0  0  0  0  0  0  0  0  0  0
    2.7713   -1.6000    0.0000 C   0  0  0  0  0  0  0  0  0  0  0  0
    4.1569   -2.4000    0.0000 H   0  0  0  0  0  0  0  0  0  0  0  0
    1.3857   -2.4000    0.0000 C   0  0  0  0  0  0  0  0  0  0  0  0
    1.3857   -4.0000    0.0000 H   0  0  0  0  0  0  0  0  0  0  0  0
   -0.0001   -1.6000    0.0000 C   0  0  0  0  0  0  0  0  0  0  0  0
   -1.3857   -2.4000    0.0000 C   0  0  0  0  0  0  0  0  0  0  0  0
   -1.3857   -4.0000    0.0000 H   0  0  0  0  0  0  0  0  0  0  0  0
   -2.7713   -1.6000    0.0000 C   0  0  0  0  0  0  0  0  0  0  0  0
   -4.1569   -2.4000    0.0000 H   0  0  0  0  0  0  0  0  0  0  0  0
   -2.7713   -0.0000    0.0000 C   0  0  0  0  0  0  0  0  0  0  0  0
   -4.1569    0.8000    0.0000 H   0  0  0  0  0  0  0  0  0  0  0  0
   -1.3857    0.8000    0.0000 C   0  0  0  0  0  0  0  0  0  0  0  0
   -1.3857    2.4000    0.0000 H   0  0  0  0  0  0  0  0  0  0  0  0
  1  2  1  0  0  0  0
  2  3  1  0  0  0  0
  2  4  2  0  0  0  0
  4  5  1  0  0  0  0
  5  6  3  0  0  0  0
  4  7  1  0  0  0  0
  7  8  1  0  0  0  0
  7  9  2  0  0  0  0
  9 10  1  0  0  0  0
  9 11  1  0  0  0  0
 11  1  1  0  0  0  0
 11 12  2  0  0  0  0
 12 13  1  0  0  0  0
 12 14  1  0  0  0  0
 14 15  1  0  0  0  0
 14 16  2  0  0  0  0
 16 17  1  0  0  0  0
 16 18  1  0  0  0  0
 18  1  2  0  0  0  0
 18 19  1  0  0  0  0
M  END
> <ChemID>
102669

> <source_casrn>
613-46-7

> <CAS>
613-46-7

> <SMILES>
N#Cc1cc2ccccc2cc1

> <NAME>
2-Naphthalenecarbonitrile

> <preferred_name>
2-Naphthalenecarbonitrile

> <iupac>
NAPHTHALENE-2-CARBONITRILE

> <MPID>
21671

> <dsstox_substance_id>
DTXSID7060621

> <Canonical_QSARr>
N#Cc1cc2ccccc2cc1

> <InChI_Code_QSARr>
InChI=1S/C11H7N/c12-8-9-5-6-10-3-1-2-4-11(10)7-9/h1-7H

> <InChI Key_QSARr>
AZKDTTQQTKDXLH-UHFFFAOYSA-N

> <Salt_Solvent>
?

> <BP>
306.5

$$$$
102673
  -INDIGO-08031720192D

 24 24  0  0  0  0  0  0  0  0999 V2000
    0.0000    0.0001    0.0000 C   0  0  0  0  0  0  0  0  0  0  0  0
    0.9404   -1.2945    0.0000 H   0  0  0  0  0  0  0  0  0  0  0  0
    1.5912    0.1672    0.0000 O   0  0  0  0  0  0  0  0  0  0  0  0
    2.5317   -1.1272    0.0000 C   0  0  0  0  0  0  0  0  0  0  0  0
    1.8809   -2.5888    0.0000 O   0  0  0  0  0  0  0  0  0  0  0  0
    4.1228   -0.9599    0.0000 C   0  0  0  0  0  0  0  0  0  0  0  0
    5.7142   -0.7927    0.0000 H   0  0  0  0  0  0  0  0  0  0  0  0
    5.0634   -2.2544    0.0000 H   0  0  0  0  0  0  0  0  0  0  0  0
    4.7738    0.5018    0.0000 H   0  0  0  0  0  0  0  0  0  0  0  0
    0.6508    1.4617    0.0000 O   0  0  0  0  0  0  0  0  0  0  0  0
   -0.2896    2.7561    0.0000 C   0  0  0  0  0  0  0  0  0  0  0  0
   -1.8809    2.5888    0.0000 O   0  0  0  0  0  0  0  0  0  0  0  0
    0.3612    4.2178    0.0000 C   0  0  0  0  0  0  0  0  0  0  0  0
    1.0120    5.6794    0.0000 H   0  0  0  0  0  0  0  0  0  0  0  0
   -0.5794    5.5122    0.0000 H   0  0  0  0  0  0  0  0  0  0  0  0
    1.9523    4.3851    0.0000 H   0  0  0  0  0  0  0  0  0  0  0  0
   -1.5913   -0.1672    0.0000 C   0  0  0  0  0  0  0  0  0  0  0  0
   -2.6618    1.0218    0.0000 O   0  0  0  0  0  0  0  0  0  0  0  0
   -4.1235    0.3710    0.0000 C   0  0  0  0  0  0  0  0  0  0  0  0
   -5.5092    1.1711    0.0000 H   0  0  0  0  0  0  0  0  0  0  0  0
   -3.9562   -1.2202    0.0000 C   0  0  0  0  0  0  0  0  0  0  0  0
   -5.1452   -2.2909    0.0000 H   0  0  0  0  0  0  0  0  0  0  0  0
   -2.3913   -1.5529    0.0000 C   0  0  0  0  0  0  0  0  0  0  0  0
   -1.7405   -3.0146    0.0000 H   0  0  0  0  0  0  0  0  0  0  0  0
  1  2  1  0  0  0  0
  1  3  1  0  0  0  0
  3  4  1  0  0  0  0
  4  5  2  0  0  0  0
  4  6  1  0  0  0  0
  6  7  1  0  0  0  0
  6  8  1  0  0  0  0
  6  9  1  0  0  0  0
  1 10  1  0  0  0  0
 10 11  1  0  0  0  0
 11 12  2  0  0  0  0
 11 13  1  0  0  0  0
 13 14  1  0  0  0  0
 13 15  1  0  0  0  0
 13 16  1  0  0  0  0
  1 17  1  0  0  0  0
 17 18  1  0  0  0  0
 18 19  1  0  0  0  0
 19 20  1  0  0  0  0
 19 21  2  0  0  0  0
 21 22  1  0  0  0  0
 21 23  1  0  0  0  0
 23 17  2  0  0  0  0
 23 24  1  0  0  0  0
M  END
> <ChemID>
102673

> <source_casrn>
613-75-2

> <CAS>
613-75-2

> <SMILES>
CC(=O)OC(OC(C)=O)c1ccco1

> <NAME>
Methanediol, 2-furanyl-, diacetate

> <preferred_name>


> <iupac>


> <MPID>
21675

> <dsstox_substance_id>
DTXSID80879478

> <Canonical_QSARr>
CC(=O)OC(OC(C)=O)c1ccco1

> <InChI_Code_QSARr>
InChI=1S/C9H10O5/c1-6(10)13-9(14-7(2)11)8-4-3-5-12-8/h3-5,9H,1-2H3

> <InChI Key_QSARr>
NHOCEIKFQXQFMX-UHFFFAOYSA-N

> <Salt_Solvent>
?

> <BP>
220.0

$$$$
102678
  -INDIGO-08031720192D

 19 19  0  0  0  0  0  0  0  0999 V2000
    1.6000   -0.0000    0.0000 C   0  0  0  0  0  0  0  0  0  0  0  0
    2.3999    1.3856    0.0000 O   0  0  0  0  0  0  0  0  0  0  0  0
    2.3999   -1.3856    0.0000 N   0  0  0  0  0  0  0  0  0  0  0  0
    1.6000   -2.7713    0.0000 H   0  0  0  0  0  0  0  0  0  0  0  0
    4.0000   -1.3856    0.0000 C   0  0  0  0  0  0  0  0  0  0  0  0
    5.6000   -1.3856    0.0000 H   0  0  0  0  0  0  0  0  0  0  0  0
    4.8000   -2.7713    0.0000 H   0  0  0  0  0  0  0  0  0  0  0  0
    4.8000   -0.0000    0.0000 H   0  0  0  0  0  0  0  0  0  0  0  0
    0.0000    0.0000    0.0000 C   0  0  0  0  0  0  0  0  0  0  0  0
   -0.8000    1.3856    0.0000 C   0  0  0  0  0  0  0  0  0  0  0  0
    0.0000    2.7713    0.0000 H   0  0  0  0  0  0  0  0  0  0  0  0
   -2.4001    1.3856    0.0000 C   0  0  0  0  0  0  0  0  0  0  0  0
   -3.2000    2.7713    0.0000 H   0  0  0  0  0  0  0  0  0  0  0  0
   -3.2000    0.0000    0.0000 C   0  0  0  0  0  0  0  0  0  0  0  0
   -4.8000   -0.0000    0.0000 H   0  0  0  0  0  0  0  0  0  0  0  0
   -2.4001   -1.3856    0.0000 C   0  0  0  0  0  0  0  0  0  0  0  0
   -3.2000   -2.7713    0.0000 H   0  0  0  0  0  0  0  0  0  0  0  0
   -0.8000   -1.3856    0.0000 C   0  0  0  0  0  0  0  0  0  0  0  0
    0.0000   -2.7713    0.0000 H   0  0  0  0  0  0  0  0  0  0  0  0
  1  2  2  0  0  0  0
  1  3  1  0  0  0  0
  3  4  1  0  0  0  0
  3  5  1  0  0  0  0
  5  6  1  0  0  0  0
  5  7  1  0  0  0  0
  5  8  1  0  0  0  0
  1  9  1  0  0  0  0
  9 10  1  0  0  0  0
 10 11  1  0  0  0  0
 10 12  2  0  0  0  0
 12 13  1  0  0  0  0
 12 14  1  0  0  0  0
 14 15  1  0  0  0  0
 14 16  2  0  0  0  0
 16 17  1  0  0  0  0
 16 18  1  0  0  0  0
 18  9  2  0  0  0  0
 18 19  1  0  0  0  0
M  END
> <ChemID>
102678

> <source_casrn>
613-93-4

> <CAS>
613-93-4

> <SMILES>
CNC(=O)c1ccccc1

> <NAME>
N-METHYLBENZAMIDE

> <preferred_name>
N-Methylbenzamide

> <iupac>
N-methylbenzamide

> <MPID>
21679

> <dsstox_substance_id>
DTXSID5025570

> <Canonical_QSARr>
CNC(=O)c1ccccc1

> <InChI_Code_QSARr>
InChI=1S/C8H9NO/c1-9-8(10)7-5-3-2-4-6-7/h2-6H,1H3,(H,9,10)

> <InChI Key_QSARr>
NCCHARWOCKOHIH-UHFFFAOYSA-N

> <Salt_Solvent>
?

> <BP>
291.0

$$$$
102682
  -INDIGO-08031720192D

 17 17  0  0  0  0  0  0  0  0999 V2000
    1.6001    0.0000    0.0000 C   0  0  0  0  0  0  0  0  0  0  0  0
    2.4000   -1.3856    0.0000 C   0  0  0  0  0  0  0  0  0  0  0  0
    4.0000   -1.3856    0.0000 H   0  0  0  0  0  0  0  0  0  0  0  0
    1.6001   -2.7713    0.0000 C   0  0  0  0  0  0  0  0  0  0  0  0
    2.4000   -4.1569    0.0000 H   0  0  0  0  0  0  0  0  0  0  0  0
    0.0001   -2.7713    0.0000 C   0  0  0  0  0  0  0  0  0  0  0  0
   -0.8000   -4.1569    0.0000 H   0  0  0  0  0  0  0  0  0  0  0  0
   -0.8000   -1.3856    0.0000 C   0  0  0  0  0  0  0  0  0  0  0  0
   -2.4000   -1.3856    0.0000 H   0  0  0  0  0  0  0  0  0  0  0  0
    0.0001    0.0000    0.0000 C   0  0  0  0  0  0  0  0  0  0  0  0
   -0.8000    1.3856    0.0000 C   0  0  0  0  0  0  0  0  0  0  0  0
   -1.5999    2.7713    0.0000 H   0  0  0  0  0  0  0  0  0  0  0  0
   -2.4000    1.3856    0.0000 H   0  0  0  0  0  0  0  0  0  0  0  0
    0.0001    2.7713    0.0000 H   0  0  0  0  0  0  0  0  0  0  0  0
    2.4000    1.3856    0.0000 N   0  0  0  0  0  0  0  0  0  0  0  0
    4.0000    1.3856    0.0000 C   0  0  0  0  0  0  0  0  0  0  0  0
    5.6000    1.3856    0.0000 O   0  0  0  0  0  0  0  0  0  0  0  0
  1  2  1  0  0  0  0
  2  3  1  0  0  0  0
  2  4  2  0  0  0  0
  4  5  1  0  0  0  0
  4  6  1  0  0  0  0
  6  7  1  0  0  0  0
  6  8  2  0  0  0  0
  8  9  1  0  0  0  0
  8 10  1  0  0  0  0
 10  1  2  0  0  0  0
 10 11  1  0  0  0  0
 11 12  1  0  0  0  0
 11 13  1  0  0  0  0
 11 14  1  0  0  0  0
  1 15  1  0  0  0  0
 15 16  2  0  0  0  0
 16 17  2  0  0  0  0
M  END
> <ChemID>
102682

> <source_casrn>
614-68-6

> <CAS>
614-68-6

> <SMILES>
Cc1ccccc1N=C=O

> <NAME>
Benzene, 1-isocyanato-2-methyl-

> <preferred_name>
1-Isocyanato-2-methylbenzene

> <iupac>
1-isocyanato-2-methylbenzene

> <MPID>
21683

> <dsstox_substance_id>
DTXSID7052286

> <Canonical_QSARr>
Cc1ccccc1N=C=O

> <InChI_Code_QSARr>
InChI=1S/C8H7NO/c1-7-4-2-3-5-8(7)9-6-10/h2-5H,1H3

> <InChI Key_QSARr>
VAYMIYBJLRRIFR-UHFFFAOYSA-N

> <Salt_Solvent>
?

> <BP>
185.0

$$$$
102686
  -INDIGO-08031720192D

 19 20  0  0  0  0  0  0  0  0999 V2000
    0.0000    1.6000    0.0000 C   0  0  0  0  0  0  0  0  0  0  0  0
    1.3856    2.4000    0.0000 C   0  0  0  0  0  0  0  0  0  0  0  0
    1.3856    4.0000    0.0000 H   0  0  0  0  0  0  0  0  0  0  0  0
    2.7713    1.6000    0.0000 C   0  0  0  0  0  0  0  0  0  0  0  0
    4.1569    2.4000    0.0000 H   0  0  0  0  0  0  0  0  0  0  0  0
    2.7713    0.0000    0.0000 C   0  0  0  0  0  0  0  0  0  0  0  0
    4.1569   -0.8000    0.0000 C   0  0  0  0  0  0  0  0  0  0  0  0
    5.5426   -1.6000    0.0000 H   0  0  0  0  0  0  0  0  0  0  0  0
    5.5426    0.0000    0.0000 H   0  0  0  0  0  0  0  0  0  0  0  0
    4.1569   -2.4000    0.0000 H   0  0  0  0  0  0  0  0  0  0  0  0
    1.3856   -0.8000    0.0000 C   0  0  0  0  0  0  0  0  0  0  0  0
    1.3856   -2.4000    0.0000 H   0  0  0  0  0  0  0  0  0  0  0  0
    0.0000    0.0000    0.0000 C   0  0  0  0  0  0  0  0  0  0  0  0
   -1.5217   -0.4944    0.0000 C   0  0  0  0  0  0  0  0  0  0  0  0
   -2.0162   -2.0161    0.0000 H   0  0  0  0  0  0  0  0  0  0  0  0
   -2.4622    0.8000    0.0000 C   0  0  0  0  0  0  0  0  0  0  0  0
   -4.0621    0.8000    0.0000 H   0  0  0  0  0  0  0  0  0  0  0  0
   -1.5217    2.0944    0.0000 N   0  0  0  0  0  0  0  0  0  0  0  0
   -2.0160    3.6161    0.0000 H   0  0  0  0  0  0  0  0  0  0  0  0
  1  2  1  0  0  0  0
  2  3  1  0  0  0  0
  2  4  2  0  0  0  0
  4  5  1  0  0  0  0
  4  6  1  0  0  0  0
  6  7  1  0  0  0  0
  7  8  1  0  0  0  0
  7  9  1  0  0  0  0
  7 10  1  0  0  0  0
  6 11  2  0  0  0  0
 11 12  1  0  0  0  0
 11 13  1  0  0  0  0
 13  1  2  0  0  0  0
 13 14  1  0  0  0  0
 14 15  1  0  0  0  0
 14 16  2  0  0  0  0
 16 17  1  0  0  0  0
 16 18  1  0  0  0  0
 18  1  1  0  0  0  0
 18 19  1  0  0  0  0
M  END
> <ChemID>
102686

> <source_casrn>
614-96-0

> <CAS>
614-96-0

> <SMILES>
Cc1cc2cc[nH]c2cc1

> <NAME>
5-METHYLINDOLE

> <preferred_name>
5-Methylindole

> <iupac>
5-methyl-1H-indole

> <MPID>
21687

> <dsstox_substance_id>
DTXSID6060638

> <Canonical_QSARr>
Cc1cc2cc[nH]c2cc1

> <InChI_Code_QSARr>
InChI=1S/C9H9N/c1-7-2-3-9-8(6-7)4-5-10-9/h2-6,10H,1H3

> <InChI Key_QSARr>
YPKBCLZFIYBSHK-UHFFFAOYSA-N

> <Salt_Solvent>
?

> <BP>
267.0

$$$$
102690
  -INDIGO-08031720192D

 14 15  0  0  0  0  0  0  0  0999 V2000
    0.0000   -0.0000    0.0000 C   0  0  0  0  0  0  0  0  0  0  0  0
   -0.8000    1.3856    0.0000 C   0  0  0  0  0  0  0  0  0  0  0  0
    0.0000    2.7713    0.0000 H   0  0  0  0  0  0  0  0  0  0  0  0
   -2.4000    1.3856    0.0000 C   0  0  0  0  0  0  0  0  0  0  0  0
   -3.2000    2.7713    0.0000 H   0  0  0  0  0  0  0  0  0  0  0  0
   -3.2000   -0.0000    0.0000 C   0  0  0  0  0  0  0  0  0  0  0  0
   -4.8000   -0.0000    0.0000 H   0  0  0  0  0  0  0  0  0  0  0  0
   -2.4000   -1.3856    0.0000 C   0  0  0  0  0  0  0  0  0  0  0  0
   -3.2000   -2.7713    0.0000 H   0  0  0  0  0  0  0  0  0  0  0  0
   -0.8000   -1.3856    0.0000 C   0  0  0  0  0  0  0  0  0  0  0  0
    0.2706   -2.5746    0.0000 N   0  0  0  0  0  0  0  0  0  0  0  0
    1.7322   -1.9239    0.0000 C   0  0  0  0  0  0  0  0  0  0  0  0
    3.1179   -2.7239    0.0000 Cl  0  0  0  0  0  0  0  0  0  0  0  0
    1.5650   -0.3327    0.0000 S   0  0  0  0  0  0  0  0  0  0  0  0
  1  2  1  0  0  0  0
  2  3  1  0  0  0  0
  2  4  2  0  0  0  0
  4  5  1  0  0  0  0
  4  6  1  0  0  0  0
  6  7  1  0  0  0  0
  6  8  2  0  0  0  0
  8  9  1  0  0  0  0
  8 10  1  0  0  0  0
 10  1  2  0  0  0  0
 10 11  1  0  0  0  0
 11 12  2  0  0  0  0
 12 13  1  0  0  0  0
 12 14  1  0  0  0  0
 14  1  1  0  0  0  0
M  END
> <ChemID>
102690

> <source_casrn>
615-20-3

> <CAS>
615-20-3

> <SMILES>
Clc1[n]c2ccccc2[s]1

> <NAME>
Benzothiazole, 2-chloro-

> <preferred_name>
2-Chlorobenzothiazole

> <iupac>
2-chloro-1,3-benzothiazole

> <MPID>
21691

> <dsstox_substance_id>
DTXSID2052289

> <Canonical_QSARr>
Clc1[n]c2ccccc2[s]1

> <InChI_Code_QSARr>
InChI=1S/C7H4ClNS/c8-7-9-5-3-1-2-4-6(5)10-7/h1-4H

> <InChI Key_QSARr>
BSQLQMLFTHJVKS-UHFFFAOYSA-N

> <Salt_Solvent>
?

> <BP>
248.0

$$$$
102694
  -INDIGO-08031720192D

 12 12  0  0  0  0  0  0  0  0999 V2000
   -0.0000   -0.0000    0.0000 C   0  0  0  0  0  0  0  0  0  0  0  0
    0.8000   -1.3857    0.0000 C   0  0  0  0  0  0  0  0  0  0  0  0
    2.4000   -1.3857    0.0000 I   0  0  0  0  0  0  0  0  0  0  0  0
   -0.0000   -2.7713    0.0000 C   0  0  0  0  0  0  0  0  0  0  0  0
    0.8000   -4.1569    0.0000 H   0  0  0  0  0  0  0  0  0  0  0  0
   -1.6000   -2.7713    0.0000 C   0  0  0  0  0  0  0  0  0  0  0  0
   -2.4000   -4.1569    0.0000 H   0  0  0  0  0  0  0  0  0  0  0  0
   -2.4000   -1.3856    0.0000 C   0  0  0  0  0  0  0  0  0  0  0  0
   -4.0000   -1.3856    0.0000 H   0  0  0  0  0  0  0  0  0  0  0  0
   -1.6000   -0.0000    0.0000 C   0  0  0  0  0  0  0  0  0  0  0  0
   -2.4000    1.3856    0.0000 H   0  0  0  0  0  0  0  0  0  0  0  0
    0.8000    1.3856    0.0000 I   0  0  0  0  0  0  0  0  0  0  0  0
  1  2  1  0  0  0  0
  2  3  1  0  0  0  0
  2  4  2  0  0  0  0
  4  5  1  0  0  0  0
  4  6  1  0  0  0  0
  6  7  1  0  0  0  0
  6  8  2  0  0  0  0
  8  9  1  0  0  0  0
  8 10  1  0  0  0  0
 10  1  2  0  0  0  0
 10 11  1  0  0  0  0
  1 12  1  0  0  0  0
M  END
> <ChemID>
102694

> <source_casrn>
615-42-9

> <CAS>
615-42-9

> <SMILES>
Ic1ccccc1I

> <NAME>
1,2-DIIODOBENZENE

> <preferred_name>
Benzene, 1,2-diiodo-

> <iupac>
1,2-Diiodobenzene

> <MPID>
21695

> <dsstox_substance_id>
DTXSID0060648

> <Canonical_QSARr>
Ic1ccccc1I

> <InChI_Code_QSARr>
InChI=1S/C6H4I2/c7-5-3-1-2-4-6(5)8/h1-4H

> <InChI Key_QSARr>
BBOLNFYSRZVALD-UHFFFAOYSA-N

> <Salt_Solvent>
?

> <BP>
287.0

$$$$
102698
  -INDIGO-08031720192D

 18 18  0  0  0  0  0  0  0  0999 V2000
   -4.1569    2.4000    0.0000 Cl  0  0  0  0  0  0  0  0  0  0  0  0
   -2.7713    1.6000    0.0000 C   0  0  0  0  0  0  0  0  0  0  0  0
   -1.3856    2.4000    0.0000 C   0  0  0  0  0  0  0  0  0  0  0  0
   -1.3856    4.0000    0.0000 H   0  0  0  0  0  0  0  0  0  0  0  0
    0.0000    1.6000    0.0000 C   0  0  0  0  0  0  0  0  0  0  0  0
    1.3856    2.4000    0.0000 C   0  0  0  0  0  0  0  0  0  0  0  0
    2.7713    3.2000    0.0000 H   0  0  0  0  0  0  0  0  0  0  0  0
    1.3856    4.0000    0.0000 H   0  0  0  0  0  0  0  0  0  0  0  0
    2.7713    1.6000    0.0000 H   0  0  0  0  0  0  0  0  0  0  0  0
    0.0000    0.0000    0.0000 C   0  0  0  0  0  0  0  0  0  0  0  0
    1.3856   -0.8000    0.0000 C   0  0  0  0  0  0  0  0  0  0  0  0
    2.7713   -1.6000    0.0000 H   0  0  0  0  0  0  0  0  0  0  0  0
    1.3856   -2.4000    0.0000 H   0  0  0  0  0  0  0  0  0  0  0  0
    2.7713    0.0000    0.0000 H   0  0  0  0  0  0  0  0  0  0  0  0
   -1.3856   -0.8000    0.0000 C   0  0  0  0  0  0  0  0  0  0  0  0
   -1.3856   -2.4000    0.0000 H   0  0  0  0  0  0  0  0  0  0  0  0
   -2.7713    0.0000    0.0000 C   0  0  0  0  0  0  0  0  0  0  0  0
   -4.1569   -0.8000    0.0000 H   0  0  0  0  0  0  0  0  0  0  0  0
  1  2  1  0  0  0  0
  2  3  1  0  0  0  0
  3  4  1  0  0  0  0
  3  5  2  0  0  0  0
  5  6  1  0  0  0  0
  6  7  1  0  0  0  0
  6  8  1  0  0  0  0
  6  9  1  0  0  0  0
  5 10  1  0  0  0  0
 10 11  1  0  0  0  0
 11 12  1  0  0  0  0
 11 13  1  0  0  0  0
 11 14  1  0  0  0  0
 10 15  2  0  0  0  0
 15 16  1  0  0  0  0
 15 17  1  0  0  0  0
 17  2  2  0  0  0  0
 17 18  1  0  0  0  0
M  END
> <ChemID>
102698

> <source_casrn>
615-60-1

> <CAS>
615-60-1

> <SMILES>
Cc1cc(Cl)ccc1C

> <NAME>
3,4-DIMETHYLCHLOROBENZENE

> <preferred_name>
4-Chloro-o-xylene

> <iupac>
4-chloro-1,2-dimethylbenzene

> <MPID>
21699

> <dsstox_substance_id>
DTXSID50210470

> <Canonical_QSARr>
Cc1cc(Cl)ccc1C

> <InChI_Code_QSARr>
InChI=1S/C8H9Cl/c1-6-3-4-8(9)5-7(6)2/h3-5H,1-2H3

> <InChI Key_QSARr>
HNQLMBJUMVLFCF-UHFFFAOYSA-N

> <Salt_Solvent>
?

> <BP>
194.0

$$$$
102702
  -INDIGO-08031720192D

 18 18  0  0  0  0  0  0  0  0999 V2000
   -1.3856    0.8000    0.0000 N   0  0  0  0  0  0  0  0  0  0  0  0
   -1.3856    2.4000    0.0000 H   0  0  0  0  0  0  0  0  0  0  0  0
   -2.7713   -0.0000    0.0000 H   0  0  0  0  0  0  0  0  0  0  0  0
    0.0000   -0.0000    0.0000 C   0  0  0  0  0  0  0  0  0  0  0  0
    0.0000   -1.6000    0.0000 C   0  0  0  0  0  0  0  0  0  0  0  0
   -1.3857   -2.4000    0.0000 N   0  0  0  0  0  0  0  0  0  0  0  0
   -1.3856   -4.0000    0.0000 H   0  0  0  0  0  0  0  0  0  0  0  0
   -2.7713   -1.6000    0.0000 H   0  0  0  0  0  0  0  0  0  0  0  0
    1.3857   -2.4000    0.0000 C   0  0  0  0  0  0  0  0  0  0  0  0
    1.3857   -4.0000    0.0000 H   0  0  0  0  0  0  0  0  0  0  0  0
    2.7713   -1.6000    0.0000 C   0  0  0  0  0  0  0  0  0  0  0  0
    4.1570   -2.4000    0.0000 H   0  0  0  0  0  0  0  0  0  0  0  0
    2.7713   -0.0000    0.0000 C   0  0  0  0  0  0  0  0  0  0  0  0
    4.1570    0.8000    0.0000 N   0  0  0  0  0  0  0  0  0  0  0  0
    5.5426   -0.0000    0.0000 H   0  0  0  0  0  0  0  0  0  0  0  0
    4.1570    2.4000    0.0000 H   0  0  0  0  0  0  0  0  0  0  0  0
    1.3857    0.8000    0.0000 C   0  0  0  0  0  0  0  0  0  0  0  0
    1.3857    2.4000    0.0000 H   0  0  0  0  0  0  0  0  0  0  0  0
  1  2  1  0  0  0  0
  1  3  1  0  0  0  0
  1  4  1  0  0  0  0
  4  5  1  0  0  0  0
  5  6  1  0  0  0  0
  6  7  1  0  0  0  0
  6  8  1  0  0  0  0
  5  9  2  0  0  0  0
  9 10  1  0  0  0  0
  9 11  1  0  0  0  0
 11 12  1  0  0  0  0
 11 13  2  0  0  0  0
 13 14  1  0  0  0  0
 14 15  1  0  0  0  0
 14 16  1  0  0  0  0
 13 17  1  0  0  0  0
 17  4  2  0  0  0  0
 17 18  1  0  0  0  0
M  END
> <ChemID>
102702

> <source_casrn>
615-71-4

> <CAS>
615-71-4

> <SMILES>
Nc1cc(N)c(N)cc1

> <NAME>
1,2,4-BENZENETRIAMINE

> <preferred_name>
1,2,4-Triaminobenzene

> <iupac>
benzene-1,2,4-triamine

> <MPID>
21703

> <dsstox_substance_id>
DTXSID70210472

> <Canonical_QSARr>
Nc1cc(N)c(N)cc1

> <InChI_Code_QSARr>
InChI=1S/C6H9N3/c7-4-1-2-5(8)6(9)3-4/h1-3H,7-9H2

> <InChI Key_QSARr>
JSYBAZQQYCNZJE-UHFFFAOYSA-N

> <Salt_Solvent>
?

> <BP>
340.0

$$$$
102708
  -INDIGO-08031720192D

 20 20  0  0  0  0  0  0  0  0999 V2000
    2.7713    1.6000    0.0000 C   0  0  0  0  0  0  0  0  0  0  0  0
    2.7713    0.0000    0.0000 C   0  0  0  0  0  0  0  0  0  0  0  0
    4.1570   -0.8000    0.0000 C   0  0  0  0  0  0  0  0  0  0  0  0
    5.5426   -1.6000    0.0000 H   0  0  0  0  0  0  0  0  0  0  0  0
    5.5426    0.0000    0.0000 H   0  0  0  0  0  0  0  0  0  0  0  0
    4.1570   -2.4000    0.0000 H   0  0  0  0  0  0  0  0  0  0  0  0
    1.3857   -0.8000    0.0000 C   0  0  0  0  0  0  0  0  0  0  0  0
    1.3857   -2.4000    0.0000 H   0  0  0  0  0  0  0  0  0  0  0  0
    0.0000    0.0000    0.0000 C   0  0  0  0  0  0  0  0  0  0  0  0
   -1.3857   -0.8000    0.0000 C   0  0  0  0  0  0  0  0  0  0  0  0
   -2.7713   -1.6000    0.0000 H   0  0  0  0  0  0  0  0  0  0  0  0
   -2.7713    0.0000    0.0000 H   0  0  0  0  0  0  0  0  0  0  0  0
   -1.3857   -2.4000    0.0000 H   0  0  0  0  0  0  0  0  0  0  0  0
    0.0000    1.6000    0.0000 C   0  0  0  0  0  0  0  0  0  0  0  0
   -1.3856    2.4000    0.0000 O   0  0  0  0  0  0  0  0  0  0  0  0
   -1.3856    4.0000    0.0000 H   0  0  0  0  0  0  0  0  0  0  0  0
    1.3857    2.4000    0.0000 C   0  0  0  0  0  0  0  0  0  0  0  0
    1.3857    4.0000    0.0000 H   0  0  0  0  0  0  0  0  0  0  0  0
    4.1570    2.4000    0.0000 O   0  0  0  0  0  0  0  0  0  0  0  0
    4.1570    4.0000    0.0000 H   0  0  0  0  0  0  0  0  0  0  0  0
  1  2  1  0  0  0  0
  2  3  1  0  0  0  0
  3  4  1  0  0  0  0
  3  5  1  0  0  0  0
  3  6  1  0  0  0  0
  2  7  2  0  0  0  0
  7  8  1  0  0  0  0
  7  9  1  0  0  0  0
  9 10  1  0  0  0  0
 10 11  1  0  0  0  0
 10 12  1  0  0  0  0
 10 13  1  0  0  0  0
  9 14  2  0  0  0  0
 14 15  1  0  0  0  0
 15 16  1  0  0  0  0
 14 17  1  0  0  0  0
 17  1  2  0  0  0  0
 17 18  1  0  0  0  0
  1 19  1  0  0  0  0
 19 20  1  0  0  0  0
M  END
> <ChemID>
102708

> <source_casrn>
615-89-4

> <CAS>
NOCAS_870698

> <SMILES>
Cc1cc(C)c(O)cc1O

> <NAME>
4,6-DIMETHYLRESORCINOL

> <preferred_name>


> <iupac>


> <MPID>
21708

> <dsstox_substance_id>
DTXSID90870698

> <Canonical_QSARr>
Cc1cc(C)c(O)cc1O

> <InChI_Code_QSARr>
InChI=1S/C8H10O2/c1-5-3-6(2)8(10)4-7(5)9/h3-4,9-10H,1-2H3

> <InChI Key_QSARr>
IYDQSPIOJHDHHO-UHFFFAOYSA-N

> <Salt_Solvent>
?

> <BP>
276.0

$$$$
102713
  -INDIGO-08031720192D

 18 17  0  0  0  0  0  0  0  0999 V2000
    0.0001    0.0000    0.0000 C   0  0  0  0  0  0  0  0  0  0  0  0
    1.6001    0.0000    0.0000 C   0  0  0  0  0  0  0  0  0  0  0  0
    1.8088    1.5863    0.0000 H   0  0  0  0  0  0  0  0  0  0  0  0
    2.8694    0.9740    0.0000 H   0  0  0  0  0  0  0  0  0  0  0  0
    2.4000   -1.3856    0.0000 C   0  0  0  0  0  0  0  0  0  0  0  0
    3.2001   -2.7713    0.0000 H   0  0  0  0  0  0  0  0  0  0  0  0
    4.0000   -1.3856    0.0000 H   0  0  0  0  0  0  0  0  0  0  0  0
    1.6001   -2.7713    0.0000 H   0  0  0  0  0  0  0  0  0  0  0  0
   -0.8000    1.3856    0.0000 C   0  0  0  0  0  0  0  0  0  0  0  0
   -0.0001    2.7713    0.0000 H   0  0  0  0  0  0  0  0  0  0  0  0
   -2.4000    1.3856    0.0000 C   0  0  0  0  0  0  0  0  0  0  0  0
   -4.0000    1.3856    0.0000 H   0  0  0  0  0  0  0  0  0  0  0  0
   -3.2001    2.7713    0.0000 H   0  0  0  0  0  0  0  0  0  0  0  0
   -3.2001   -0.0000    0.0000 H   0  0  0  0  0  0  0  0  0  0  0  0
   -0.8000   -1.3856    0.0000 C   0  0  0  0  0  0  0  0  0  0  0  0
   -1.5999   -2.7713    0.0000 H   0  0  0  0  0  0  0  0  0  0  0  0
   -2.4000   -1.3856    0.0000 H   0  0  0  0  0  0  0  0  0  0  0  0
    0.0001   -2.7713    0.0000 H   0  0  0  0  0  0  0  0  0  0  0  0
  1  2  1  0  0  0  0
  2  3  1  0  0  0  0
  2  4  1  0  0  0  0
  2  5  1  0  0  0  0
  5  6  1  0  0  0  0
  5  7  1  0  0  0  0
  5  8  1  0  0  0  0
  1  9  2  0  0  0  0
  9 10  1  0  0  0  0
  9 11  1  0  0  0  0
 11 12  1  0  0  0  0
 11 13  1  0  0  0  0
 11 14  1  0  0  0  0
  1 15  1  0  0  0  0
 15 16  1  0  0  0  0
 15 17  1  0  0  0  0
 15 18  1  0  0  0  0
M  END
> <ChemID>
102713

> <source_casrn>
616-12-6|922-61-2|922-62-3

> <CAS>
922-61-2

> <SMILES>
CCC(C)=CC

> <NAME>
trans-3-Methyl-2-pentene, 3-METHYL-2-PENTENE, 2-Pentene, 3-methyl-, (Z)-

> <preferred_name>
2-Pentene, 3-methyl-

> <iupac>
?

> <MPID>
21712|22452|22453

> <dsstox_substance_id>
DTXSID5073240

> <Canonical_QSARr>
CCC(C)=CC

> <InChI_Code_QSARr>
InChI=1S/C6H12/c1-4-6(3)5-2/h4H,5H2,1-3H3/b6-4+

> <InChI Key_QSARr>
BEQGRRJLJLVQAQ-GQCTYLIASA-N

> <Salt_Solvent>
?

> <BP>
69.0333333333333

$$$$
102717
  -INDIGO-08031720192D

 12 11  0  0  0  0  0  0  0  0999 V2000
    2.7713    0.0000    0.0000 O   0  0  0  0  0  0  0  0  0  0  0  0
    4.1569    0.8000    0.0000 H   0  0  0  0  0  0  0  0  0  0  0  0
    1.3856    0.8000    0.0000 C   0  0  0  0  0  0  0  0  0  0  0  0
    0.7733    2.2782    0.0000 H   0  0  0  0  0  0  0  0  0  0  0  0
    1.9980    2.2782    0.0000 H   0  0  0  0  0  0  0  0  0  0  0  0
    0.0000    0.0000    0.0000 C   0  0  0  0  0  0  0  0  0  0  0  0
    0.6123   -1.4782    0.0000 H   0  0  0  0  0  0  0  0  0  0  0  0
   -0.6123   -1.4782    0.0000 Cl  0  0  0  0  0  0  0  0  0  0  0  0
   -1.3856    0.8000    0.0000 C   0  0  0  0  0  0  0  0  0  0  0  0
   -2.7713    1.6000    0.0000 H   0  0  0  0  0  0  0  0  0  0  0  0
   -2.7713    0.0000    0.0000 H   0  0  0  0  0  0  0  0  0  0  0  0
   -1.3856    2.4000    0.0000 Cl  0  0  0  0  0  0  0  0  0  0  0  0
  1  2  1  0  0  0  0
  1  3  1  0  0  0  0
  3  4  1  0  0  0  0
  3  5  1  0  0  0  0
  3  6  1  0  0  0  0
  6  7  1  0  0  0  0
  6  8  1  0  0  0  0
  6  9  1  0  0  0  0
  9 10  1  0  0  0  0
  9 11  1  0  0  0  0
  9 12  1  0  0  0  0
M  END
> <ChemID>
102717

> <source_casrn>
616-23-9

> <CAS>
616-23-9

> <SMILES>
OCC(Cl)CCl

> <NAME>
2,3-DICHLOROPROPANOL

> <preferred_name>
2,3-Dichloro-1-propanol

> <iupac>
2,3-dichloropropan-1-ol

> <MPID>
21716

> <dsstox_substance_id>
DTXSID2024038

> <Canonical_QSARr>
OCC(Cl)CCl

> <InChI_Code_QSARr>
InChI=1S/C3H6Cl2O/c4-1-3(5)2-6/h3,6H,1-2H2

> <InChI Key_QSARr>
ZXCYIJGIGSDJQQ-UHFFFAOYSA-N

> <Salt_Solvent>
?

> <BP>
184.0

$$$$
102721
  -INDIGO-08031720192D

 18 17  0  0  0  0  0  0  0  0999 V2000
   -0.8001    1.3856    0.0000 S   0  0  0  0  0  0  0  0  0  0  0  0
    0.0001    2.7713    0.0000 H   0  0  0  0  0  0  0  0  0  0  0  0
    0.0001    0.0000    0.0000 C   0  0  0  0  0  0  0  0  0  0  0  0
    0.8000   -1.3857    0.0000 H   0  0  0  0  0  0  0  0  0  0  0  0
   -1.3856   -0.8000    0.0000 C   0  0  0  0  0  0  0  0  0  0  0  0
   -0.7733   -2.2782    0.0000 H   0  0  0  0  0  0  0  0  0  0  0  0
   -1.9979   -2.2782    0.0000 H   0  0  0  0  0  0  0  0  0  0  0  0
   -2.7713    0.0000    0.0000 C   0  0  0  0  0  0  0  0  0  0  0  0
   -4.1569    0.8000    0.0000 H   0  0  0  0  0  0  0  0  0  0  0  0
   -4.1569   -0.8000    0.0000 H   0  0  0  0  0  0  0  0  0  0  0  0
   -2.7713    1.6000    0.0000 H   0  0  0  0  0  0  0  0  0  0  0  0
    1.5035    0.5472    0.0000 C   0  0  0  0  0  0  0  0  0  0  0  0
    1.1572    2.1093    0.0000 H   0  0  0  0  0  0  0  0  0  0  0  0
    2.3631    1.8967    0.0000 H   0  0  0  0  0  0  0  0  0  0  0  0
    2.7291   -0.4812    0.0000 C   0  0  0  0  0  0  0  0  0  0  0  0
    3.9549   -1.5097    0.0000 H   0  0  0  0  0  0  0  0  0  0  0  0
    4.2327    0.0660    0.0000 H   0  0  0  0  0  0  0  0  0  0  0  0
    2.4513   -2.0569    0.0000 H   0  0  0  0  0  0  0  0  0  0  0  0
  1  2  1  0  0  0  0
  1  3  1  0  0  0  0
  3  4  1  0  0  0  0
  3  5  1  0  0  0  0
  5  6  1  0  0  0  0
  5  7  1  0  0  0  0
  5  8  1  0  0  0  0
  8  9  1  0  0  0  0
  8 10  1  0  0  0  0
  8 11  1  0  0  0  0
  3 12  1  0  0  0  0
 12 13  1  0  0  0  0
 12 14  1  0  0  0  0
 12 15  1  0  0  0  0
 15 16  1  0  0  0  0
 15 17  1  0  0  0  0
 15 18  1  0  0  0  0
M  END
> <ChemID>
102721

> <source_casrn>
616-31-9

> <CAS>
616-31-9

> <SMILES>
CCC(S)CC

> <NAME>
3-PENTANETHIOL

> <preferred_name>
Pentane-3-thiol

> <iupac>
Pentane-3-thiol

> <MPID>
21720

> <dsstox_substance_id>
DTXSID70210598

> <Canonical_QSARr>
CCC(S)CC

> <InChI_Code_QSARr>
InChI=1S/C5H12S/c1-3-5(6)4-2/h5-6H,3-4H2,1-2H3

> <InChI Key_QSARr>
WICKAMSPKJXSGN-UHFFFAOYSA-N

> <Salt_Solvent>
?

> <BP>
105.0

$$$$
102725
  -INDIGO-08031720192D

 12 11  0  0  0  0  0  0  0  0999 V2000
    2.7712    1.6000    0.0000 O   0  0  0  0  0  0  0  0  0  0  0  0
    2.7712    0.0000    0.0000 S   0  0  0  0  0  0  0  0  0  0  0  0
    4.1569   -0.8000    0.0000 O   0  0  0  0  0  0  0  0  0  0  0  0
    5.5425    0.0000    0.0000 C   0  0  0  0  0  0  0  0  0  0  0  0
    6.9282    0.8000    0.0000 H   0  0  0  0  0  0  0  0  0  0  0  0
    6.9282   -0.8000    0.0000 H   0  0  0  0  0  0  0  0  0  0  0  0
    5.5425    1.6000    0.0000 H   0  0  0  0  0  0  0  0  0  0  0  0
    1.3856   -0.8000    0.0000 O   0  0  0  0  0  0  0  0  0  0  0  0
   -0.0001    0.0000    0.0000 C   0  0  0  0  0  0  0  0  0  0  0  0
   -1.3856    0.8000    0.0000 H   0  0  0  0  0  0  0  0  0  0  0  0
   -0.0001    1.6000    0.0000 H   0  0  0  0  0  0  0  0  0  0  0  0
   -1.3856   -0.8000    0.0000 H   0  0  0  0  0  0  0  0  0  0  0  0
  1  2  2  0  0  0  0
  2  3  1  0  0  0  0
  3  4  1  0  0  0  0
  4  5  1  0  0  0  0
  4  6  1  0  0  0  0
  4  7  1  0  0  0  0
  2  8  1  0  0  0  0
  8  9  1  0  0  0  0
  9 10  1  0  0  0  0
  9 11  1  0  0  0  0
  9 12  1  0  0  0  0
M  END
> <ChemID>
102725

> <source_casrn>
616-42-2

> <CAS>
616-42-2

> <SMILES>
COS(=O)OC

> <NAME>
Sulfurous acid, dimethyl ester

> <preferred_name>
Sulfurous acid, dimethyl ester

> <iupac>
Dimethyl sulfite

> <MPID>
21724

> <dsstox_substance_id>
DTXSID3060665

> <Canonical_QSARr>
COS(=O)OC

> <InChI_Code_QSARr>
InChI=1S/C2H6O3S/c1-4-6(3)5-2/h1-2H3

> <InChI Key_QSARr>
BDUPRNVPXOHWIL-UHFFFAOYSA-N

> <Salt_Solvent>
?

> <BP>
126.0

$$$$
102729
  -INDIGO-08031720192D

 12 12  0  0  0  0  0  0  0  0999 V2000
    2.3651   -1.0530    0.0000 C   0  0  0  0  0  0  0  0  0  0  0  0
    3.9563   -1.2203    0.0000 H   0  0  0  0  0  0  0  0  0  0  0  0
    1.2945   -2.2420    0.0000 N   0  0  0  0  0  0  0  0  0  0  0  0
   -0.1672   -1.5912    0.0000 C   0  0  0  0  0  0  0  0  0  0  0  0
   -1.5529   -2.3912    0.0000 H   0  0  0  0  0  0  0  0  0  0  0  0
    0.0000   -0.0000    0.0000 N   0  0  0  0  0  0  0  0  0  0  0  0
   -1.1890    1.0706    0.0000 C   0  0  0  0  0  0  0  0  0  0  0  0
   -2.3781    2.1412    0.0000 H   0  0  0  0  0  0  0  0  0  0  0  0
   -2.7107    0.5762    0.0000 H   0  0  0  0  0  0  0  0  0  0  0  0
   -0.8564    2.6356    0.0000 H   0  0  0  0  0  0  0  0  0  0  0  0
    1.5651    0.3326    0.0000 C   0  0  0  0  0  0  0  0  0  0  0  0
    2.2158    1.7943    0.0000 H   0  0  0  0  0  0  0  0  0  0  0  0
  1  2  1  0  0  0  0
  1  3  1  0  0  0  0
  3  4  2  0  0  0  0
  4  5  1  0  0  0  0
  4  6  1  0  0  0  0
  6  7  1  0  0  0  0
  7  8  1  0  0  0  0
  7  9  1  0  0  0  0
  7 10  1  0  0  0  0
  6 11  1  0  0  0  0
 11  1  2  0  0  0  0
 11 12  1  0  0  0  0
M  END
> <ChemID>
102729

> <source_casrn>
616-47-7

> <CAS>
616-47-7

> <SMILES>
C[n]1c[n]cc1

> <NAME>
1H-IMIDAZOLE, 1-METHYL-

> <preferred_name>
1-Methylimidazole

> <iupac>
1-methyl-1H-imidazole

> <MPID>
21728

> <dsstox_substance_id>
DTXSID6052291

> <Canonical_QSARr>
C[n]1c[n]cc1

> <InChI_Code_QSARr>
InChI=1S/C4H6N2/c1-6-3-2-5-4-6/h2-4H,1H3

> <InChI Key_QSARr>
MCTWTZJPVLRJOU-UHFFFAOYSA-N

> <Salt_Solvent>
?

> <BP>
195.5

$$$$
102733
  -INDIGO-08031720192D

 24 23  0  0  0  0  0  0  0  0999 V2000
    0.7999    1.3856    0.0000 C   0  0  0  0  0  0  0  0  0  0  0  0
    1.5999    2.7713    0.0000 H   0  0  0  0  0  0  0  0  0  0  0  0
    2.3999    1.3856    0.0000 H   0  0  0  0  0  0  0  0  0  0  0  0
   -0.0001    2.7713    0.0000 H   0  0  0  0  0  0  0  0  0  0  0  0
   -0.0001    0.0000    0.0000 C   0  0  0  0  0  0  0  0  0  0  0  0
   -0.8000   -1.3856    0.0000 H   0  0  0  0  0  0  0  0  0  0  0  0
   -1.5035    0.5472    0.0000 C   0  0  0  0  0  0  0  0  0  0  0  0
   -0.9563    2.0508    0.0000 H   0  0  0  0  0  0  0  0  0  0  0  0
   -3.0071    1.0945    0.0000 C   0  0  0  0  0  0  0  0  0  0  0  0
   -2.6608    2.6565    0.0000 H   0  0  0  0  0  0  0  0  0  0  0  0
   -3.8667    2.4439    0.0000 H   0  0  0  0  0  0  0  0  0  0  0  0
   -4.2327    0.0660    0.0000 C   0  0  0  0  0  0  0  0  0  0  0  0
   -4.5790   -1.4961    0.0000 H   0  0  0  0  0  0  0  0  0  0  0  0
   -3.3729   -1.2834    0.0000 H   0  0  0  0  0  0  0  0  0  0  0  0
   -5.7363    0.6132    0.0000 C   0  0  0  0  0  0  0  0  0  0  0  0
   -7.2397    1.1604    0.0000 H   0  0  0  0  0  0  0  0  0  0  0  0
   -6.9618   -0.4152    0.0000 H   0  0  0  0  0  0  0  0  0  0  0  0
   -6.0140    2.1889    0.0000 H   0  0  0  0  0  0  0  0  0  0  0  0
   -2.0507   -0.9563    0.0000 O   0  0  0  0  0  0  0  0  0  0  0  0
   -1.2507   -2.3419    0.0000 H   0  0  0  0  0  0  0  0  0  0  0  0
    1.3856   -0.8000    0.0000 C   0  0  0  0  0  0  0  0  0  0  0  0
    2.7713   -1.6000    0.0000 H   0  0  0  0  0  0  0  0  0  0  0  0
    1.3856   -2.4000    0.0000 H   0  0  0  0  0  0  0  0  0  0  0  0
    2.7713    0.0000    0.0000 H   0  0  0  0  0  0  0  0  0  0  0  0
  1  2  1  0  0  0  0
  1  3  1  0  0  0  0
  1  4  1  0  0  0  0
  1  5  1  0  0  0  0
  5  6  1  0  0  0  0
  5  7  1  0  0  0  0
  7  8  1  0  0  0  0
  7  9  1  0  0  0  0
  9 10  1  0  0  0  0
  9 11  1  0  0  0  0
  9 12  1  0  0  0  0
 12 13  1  0  0  0  0
 12 14  1  0  0  0  0
 12 15  1  0  0  0  0
 15 16  1  0  0  0  0
 15 17  1  0  0  0  0
 15 18  1  0  0  0  0
  7 19  1  0  0  0  0
 19 20  1  0  0  0  0
  5 21  1  0  0  0  0
 21 22  1  0  0  0  0
 21 23  1  0  0  0  0
 21 24  1  0  0  0  0
M  END
> <ChemID>
102733

> <source_casrn>
617-29-8

> <CAS>
NOCAS_862295

> <SMILES>
CC(C)C(O)CCC

> <NAME>
2-METHYL-3-HEXANOL

> <preferred_name>


> <iupac>


> <MPID>
21732

> <dsstox_substance_id>
DTXSID90862295

> <Canonical_QSARr>
CC(C)C(O)CCC

> <InChI_Code_QSARr>
InChI=1S/C7H16O/c1-4-5-7(8)6(2)3/h6-8H,4-5H2,1-3H3

> <InChI Key_QSARr>
RGRUUTLDBCWYBL-UHFFFAOYSA-N

> <Salt_Solvent>
?

> <BP>
141.0

$$$$
102737
  -INDIGO-08031720192D

 21 20  0  0  0  0  0  0  0  0999 V2000
   -2.6285   -1.2257    0.0000 C   0  0  0  0  0  0  0  0  0  0  0  0
   -2.0813   -2.7292    0.0000 O   0  0  0  0  0  0  0  0  0  0  0  0
   -1.6000    0.0000    0.0000 O   0  0  0  0  0  0  0  0  0  0  0  0
   -0.0000    0.0000    0.0000 C   0  0  0  0  0  0  0  0  0  0  0  0
    1.6000    0.0000    0.0000 H   0  0  0  0  0  0  0  0  0  0  0  0
   -0.0000    1.6000    0.0000 C   0  0  0  0  0  0  0  0  0  0  0  0
   -0.0000    3.2000    0.0000 H   0  0  0  0  0  0  0  0  0  0  0  0
    1.3857    2.4000    0.0000 H   0  0  0  0  0  0  0  0  0  0  0  0
   -1.3856    2.4000    0.0000 H   0  0  0  0  0  0  0  0  0  0  0  0
    0.2778   -1.5757    0.0000 C   0  0  0  0  0  0  0  0  0  0  0  0
    0.5557   -3.1514    0.0000 H   0  0  0  0  0  0  0  0  0  0  0  0
    1.7813   -2.1229    0.0000 H   0  0  0  0  0  0  0  0  0  0  0  0
   -0.9478   -2.6042    0.0000 H   0  0  0  0  0  0  0  0  0  0  0  0
   -4.2041   -0.9478    0.0000 C   0  0  0  0  0  0  0  0  0  0  0  0
   -3.9264    0.6279    0.0000 H   0  0  0  0  0  0  0  0  0  0  0  0
   -5.7798   -0.6699    0.0000 C   0  0  0  0  0  0  0  0  0  0  0  0
   -7.3555   -0.3922    0.0000 H   0  0  0  0  0  0  0  0  0  0  0  0
   -6.8083   -1.8956    0.0000 H   0  0  0  0  0  0  0  0  0  0  0  0
   -6.3270    0.8335    0.0000 H   0  0  0  0  0  0  0  0  0  0  0  0
   -4.4820   -2.5236    0.0000 O   0  0  0  0  0  0  0  0  0  0  0  0
   -5.9855   -3.0708    0.0000 H   0  0  0  0  0  0  0  0  0  0  0  0
  1  2  2  0  0  0  0
  1  3  1  0  0  0  0
  3  4  1  0  0  0  0
  4  5  1  0  0  0  0
  4  6  1  0  0  0  0
  6  7  1  0  0  0  0
  6  8  1  0  0  0  0
  6  9  1  0  0  0  0
  4 10  1  0  0  0  0
 10 11  1  0  0  0  0
 10 12  1  0  0  0  0
 10 13  1  0  0  0  0
  1 14  1  0  0  0  0
 14 15  1  0  0  0  0
 14 16  1  0  0  0  0
 16 17  1  0  0  0  0
 16 18  1  0  0  0  0
 16 19  1  0  0  0  0
 14 20  1  0  0  0  0
 20 21  1  0  0  0  0
M  END
> <ChemID>
102737

> <source_casrn>
617-51-6

> <CAS>
617-51-6

> <SMILES>
CC(C)OC(=O)C(C)O

> <NAME>
2-Hydroxy-propionic acid isopropyl ester

> <preferred_name>
Isopropyl lactate

> <iupac>
C6H12O3

> <MPID>
21736

> <dsstox_substance_id>
DTXSID70858732

> <Canonical_QSARr>
CC(C)OC(=O)C(C)O

> <InChI_Code_QSARr>
InChI=1S/C6H12O3/c1-4(2)9-6(8)5(3)7/h4-5,7H,1-3H3

> <InChI Key_QSARr>
KIWATKANDHUUOB-UHFFFAOYSA-N

> <Salt_Solvent>
?

> <BP>
167.0

$$$$
102743
  -INDIGO-08031720192D

 18 17  0  0  0  0  0  0  0  0999 V2000
   -1.6000    2.7713    0.0000 N   0  0  0  0  0  0  0  0  0  0  0  0
   -0.8000    1.3856    0.0000 C   0  0  0  0  0  0  0  0  0  0  0  0
    0.0001    0.0000    0.0000 C   0  0  0  0  0  0  0  0  0  0  0  0
    0.8000   -1.3857    0.0000 H   0  0  0  0  0  0  0  0  0  0  0  0
   -1.3856   -0.8000    0.0000 C   0  0  0  0  0  0  0  0  0  0  0  0
   -0.7734   -2.2782    0.0000 H   0  0  0  0  0  0  0  0  0  0  0  0
   -1.9979   -2.2782    0.0000 H   0  0  0  0  0  0  0  0  0  0  0  0
   -2.7712    0.0000    0.0000 C   0  0  0  0  0  0  0  0  0  0  0  0
   -4.1569   -0.8000    0.0000 H   0  0  0  0  0  0  0  0  0  0  0  0
   -4.1569    0.8000    0.0000 H   0  0  0  0  0  0  0  0  0  0  0  0
   -2.7712   -1.6000    0.0000 H   0  0  0  0  0  0  0  0  0  0  0  0
    1.3856    0.8000    0.0000 C   0  0  0  0  0  0  0  0  0  0  0  0
    0.7734    2.2782    0.0000 H   0  0  0  0  0  0  0  0  0  0  0  0
    1.9979    2.2782    0.0000 H   0  0  0  0  0  0  0  0  0  0  0  0
    2.7712    0.0000    0.0000 C   0  0  0  0  0  0  0  0  0  0  0  0
    4.1569   -0.8000    0.0000 H   0  0  0  0  0  0  0  0  0  0  0  0
    4.1569    0.8000    0.0000 H   0  0  0  0  0  0  0  0  0  0  0  0
    2.7713   -1.6000    0.0000 H   0  0  0  0  0  0  0  0  0  0  0  0
  1  2  3  0  0  0  0
  2  3  1  0  0  0  0
  3  4  1  0  0  0  0
  3  5  1  0  0  0  0
  5  6  1  0  0  0  0
  5  7  1  0  0  0  0
  5  8  1  0  0  0  0
  8  9  1  0  0  0  0
  8 10  1  0  0  0  0
  8 11  1  0  0  0  0
  3 12  1  0  0  0  0
 12 13  1  0  0  0  0
 12 14  1  0  0  0  0
 12 15  1  0  0  0  0
 15 16  1  0  0  0  0
 15 17  1  0  0  0  0
 15 18  1  0  0  0  0
M  END
> <ChemID>
102743

> <source_casrn>
617-80-1

> <CAS>
617-80-1

> <SMILES>
CCC(CC)C#N

> <NAME>
Cyanodiethylmethane

> <preferred_name>
2-Ethylbutyronitrile

> <iupac>
2-ethylbutanenitrile

> <MPID>
21740

> <dsstox_substance_id>
DTXSID60210704

> <Canonical_QSARr>
CCC(CC)C#N

> <InChI_Code_QSARr>
InChI=1S/C6H11N/c1-3-6(4-2)5-7/h6H,3-4H2,1-2H3

> <InChI Key_QSARr>
QARLTYSAFQGMMB-UHFFFAOYSA-N

> <Salt_Solvent>
?

> <BP>
145.5

$$$$
102748
  -INDIGO-08031720192D

 14 14  0  0  0  0  0  0  0  0999 V2000
    2.4621    0.8000    0.0000 C   0  0  0  0  0  0  0  0  0  0  0  0
    3.7566    1.7404    0.0000 H   0  0  0  0  0  0  0  0  0  0  0  0
    0.9405    1.2944    0.0000 O   0  0  0  0  0  0  0  0  0  0  0  0
    0.0000   -0.0000    0.0000 C   0  0  0  0  0  0  0  0  0  0  0  0
   -1.5999   -0.0000    0.0000 C   0  0  0  0  0  0  0  0  0  0  0  0
   -1.8088   -1.5864    0.0000 H   0  0  0  0  0  0  0  0  0  0  0  0
   -2.8693   -0.9740    0.0000 H   0  0  0  0  0  0  0  0  0  0  0  0
   -2.4000    1.3857    0.0000 N   0  0  0  0  0  0  0  0  0  0  0  0
   -4.0000    1.3857    0.0000 H   0  0  0  0  0  0  0  0  0  0  0  0
   -1.5999    2.7713    0.0000 H   0  0  0  0  0  0  0  0  0  0  0  0
    0.9405   -1.2944    0.0000 C   0  0  0  0  0  0  0  0  0  0  0  0
    0.4460   -2.8161    0.0000 H   0  0  0  0  0  0  0  0  0  0  0  0
    2.4621   -0.8000    0.0000 C   0  0  0  0  0  0  0  0  0  0  0  0
    3.7566   -1.7404    0.0000 H   0  0  0  0  0  0  0  0  0  0  0  0
  1  2  1  0  0  0  0
  1  3  1  0  0  0  0
  3  4  1  0  0  0  0
  4  5  1  0  0  0  0
  5  6  1  0  0  0  0
  5  7  1  0  0  0  0
  5  8  1  0  0  0  0
  8  9  1  0  0  0  0
  8 10  1  0  0  0  0
  4 11  2  0  0  0  0
 11 12  1  0  0  0  0
 11 13  1  0  0  0  0
 13  1  2  0  0  0  0
 13 14  1  0  0  0  0
M  END
> <ChemID>
102748

> <source_casrn>
617-89-0

> <CAS>
617-89-0

> <SMILES>
NCc1ccco1

> <NAME>
2-AMINOMETHYLFURAN

> <preferred_name>
Furfurylamine

> <iupac>
1-(2-furyl)methanamine

> <MPID>
21744

> <dsstox_substance_id>
DTXSID6052295

> <Canonical_QSARr>
NCc1ccco1

> <InChI_Code_QSARr>
InChI=1S/C5H7NO/c6-4-5-2-1-3-7-5/h1-3H,4,6H2

> <InChI Key_QSARr>
DDRPCXLAQZKBJP-UHFFFAOYSA-N

> <Salt_Solvent>
?

> <BP>
145.5

$$$$
102752
  -INDIGO-08031720192D

 14 14  0  0  0  0  0  0  0  0999 V2000
    0.0000   -0.0000    0.0000 C   0  0  0  0  0  0  0  0  0  0  0  0
   -0.8000    1.3856    0.0000 C   0  0  0  0  0  0  0  0  0  0  0  0
    0.0000    2.7713    0.0000 H   0  0  0  0  0  0  0  0  0  0  0  0
   -2.4000    1.3856    0.0000 C   0  0  0  0  0  0  0  0  0  0  0  0
   -3.2000    2.7713    0.0000 H   0  0  0  0  0  0  0  0  0  0  0  0
   -3.2000   -0.0000    0.0000 C   0  0  0  0  0  0  0  0  0  0  0  0
   -4.8000   -0.0000    0.0000 H   0  0  0  0  0  0  0  0  0  0  0  0
   -2.4000   -1.3856    0.0000 C   0  0  0  0  0  0  0  0  0  0  0  0
   -3.2000   -2.7713    0.0000 H   0  0  0  0  0  0  0  0  0  0  0  0
   -0.8000   -1.3856    0.0000 C   0  0  0  0  0  0  0  0  0  0  0  0
    0.0000   -2.7713    0.0000 H   0  0  0  0  0  0  0  0  0  0  0  0
    1.6000   -0.0000    0.0000 C   0  0  0  0  0  0  0  0  0  0  0  0
    2.4000    1.3856    0.0000 O   0  0  0  0  0  0  0  0  0  0  0  0
    2.4000   -1.3856    0.0000 Br  0  0  0  0  0  0  0  0  0  0  0  0
  1  2  1  0  0  0  0
  2  3  1  0  0  0  0
  2  4  2  0  0  0  0
  4  5  1  0  0  0  0
  4  6  1  0  0  0  0
  6  7  1  0  0  0  0
  6  8  2  0  0  0  0
  8  9  1  0  0  0  0
  8 10  1  0  0  0  0
 10  1  2  0  0  0  0
 10 11  1  0  0  0  0
  1 12  1  0  0  0  0
 12 13  2  0  0  0  0
 12 14  1  0  0  0  0
M  END
> <ChemID>
102752

> <source_casrn>
618-32-6

> <CAS>
618-32-6

> <SMILES>
O=C(Br)c1ccccc1

> <NAME>
BENZOYL BROMIDE

> <preferred_name>
Benzoyl bromide

> <iupac>
BENZOYL BROMIDE

> <MPID>
21748

> <dsstox_substance_id>
DTXSID7060677

> <Canonical_QSARr>
O=C(Br)c1ccccc1

> <InChI_Code_QSARr>
InChI=1S/C7H5BrO/c8-7(9)6-4-2-1-3-5-6/h1-5H

> <InChI Key_QSARr>
AQIHMSVIAGNIDM-UHFFFAOYSA-N

> <Salt_Solvent>
?

> <BP>
218.5

$$$$
102757
  -INDIGO-08031720192D

 22 22  0  0  0  0  0  0  0  0999 V2000
    4.0000    1.3857    0.0000 C   0  0  0  0  0  0  0  0  0  0  0  0
    4.8000    2.7713    0.0000 O   0  0  0  0  0  0  0  0  0  0  0  0
    6.4000    2.7713    0.0000 H   0  0  0  0  0  0  0  0  0  0  0  0
    2.4000    1.3857    0.0000 C   0  0  0  0  0  0  0  0  0  0  0  0
    1.6000    2.7713    0.0000 H   0  0  0  0  0  0  0  0  0  0  0  0
    1.6000    0.0000    0.0000 C   0  0  0  0  0  0  0  0  0  0  0  0
    0.0001    0.0000    0.0000 C   0  0  0  0  0  0  0  0  0  0  0  0
    0.0001    1.6000    0.0000 H   0  0  0  0  0  0  0  0  0  0  0  0
   -1.5757    0.2778    0.0000 C   0  0  0  0  0  0  0  0  0  0  0  0
   -3.1514    0.5557    0.0000 H   0  0  0  0  0  0  0  0  0  0  0  0
   -2.1229    1.7813    0.0000 H   0  0  0  0  0  0  0  0  0  0  0  0
   -2.6041   -0.9478    0.0000 H   0  0  0  0  0  0  0  0  0  0  0  0
    0.0001   -1.6000    0.0000 C   0  0  0  0  0  0  0  0  0  0  0  0
    0.0001   -3.2000    0.0000 H   0  0  0  0  0  0  0  0  0  0  0  0
   -1.3857   -2.4000    0.0000 H   0  0  0  0  0  0  0  0  0  0  0  0
   -1.3857   -0.8000    0.0000 H   0  0  0  0  0  0  0  0  0  0  0  0
    2.4000   -1.3856    0.0000 C   0  0  0  0  0  0  0  0  0  0  0  0
    1.6000   -2.7713    0.0000 H   0  0  0  0  0  0  0  0  0  0  0  0
    4.0000   -1.3856    0.0000 C   0  0  0  0  0  0  0  0  0  0  0  0
    4.8000   -2.7713    0.0000 H   0  0  0  0  0  0  0  0  0  0  0  0
    4.8000    0.0000    0.0000 C   0  0  0  0  0  0  0  0  0  0  0  0
    6.4000    0.0000    0.0000 H   0  0  0  0  0  0  0  0  0  0  0  0
  1  2  1  0  0  0  0
  2  3  1  0  0  0  0
  1  4  1  0  0  0  0
  4  5  1  0  0  0  0
  4  6  2  0  0  0  0
  6  7  1  0  0  0  0
  7  8  1  0  0  0  0
  7  9  1  0  0  0  0
  9 10  1  0  0  0  0
  9 11  1  0  0  0  0
  9 12  1  0  0  0  0
  7 13  1  0  0  0  0
 13 14  1  0  0  0  0
 13 15  1  0  0  0  0
 13 16  1  0  0  0  0
  6 17  1  0  0  0  0
 17 18  1  0  0  0  0
 17 19  2  0  0  0  0
 19 20  1  0  0  0  0
 19 21  1  0  0  0  0
 21  1  2  0  0  0  0
 21 22  1  0  0  0  0
M  END
> <ChemID>
102757

> <source_casrn>
618-45-1

> <CAS>
618-45-1

> <SMILES>
CC(C)c1cccc(O)c1

> <NAME>
M-ISOPROPYLPHENOL

> <preferred_name>
3-Isopropylphenol

> <iupac>
3-(propan-2-yl)phenol

> <MPID>
21752

> <dsstox_substance_id>
DTXSID0044571

> <Canonical_QSARr>
CC(C)c1cccc(O)c1

> <InChI_Code_QSARr>
InChI=1S/C9H12O/c1-7(2)8-4-3-5-9(10)6-8/h3-7,10H,1-2H3

> <InChI Key_QSARr>
VLJSLTNSFSOYQR-UHFFFAOYSA-N

> <Salt_Solvent>
?

> <BP>
228.0

$$$$
102761
  -INDIGO-08031720192D

 23 23  0  0  0  0  0  0  0  0999 V2000
    5.5425   -0.0000    0.0000 C   0  0  0  0  0  0  0  0  0  0  0  0
    6.9282   -0.8000    0.0000 H   0  0  0  0  0  0  0  0  0  0  0  0
    6.9282    0.8000    0.0000 H   0  0  0  0  0  0  0  0  0  0  0  0
    5.5425   -1.6000    0.0000 H   0  0  0  0  0  0  0  0  0  0  0  0
    4.1570    0.8000    0.0000 C   0  0  0  0  0  0  0  0  0  0  0  0
    4.7692    2.2782    0.0000 H   0  0  0  0  0  0  0  0  0  0  0  0
    3.5446    2.2782    0.0000 H   0  0  0  0  0  0  0  0  0  0  0  0
    2.7713   -0.0000    0.0000 O   0  0  0  0  0  0  0  0  0  0  0  0
    1.3856    0.8000    0.0000 C   0  0  0  0  0  0  0  0  0  0  0  0
    1.3856    2.4000    0.0000 O   0  0  0  0  0  0  0  0  0  0  0  0
    0.0001   -0.0000    0.0000 C   0  0  0  0  0  0  0  0  0  0  0  0
    0.0001   -1.6000    0.0000 C   0  0  0  0  0  0  0  0  0  0  0  0
    1.3856   -2.4000    0.0000 H   0  0  0  0  0  0  0  0  0  0  0  0
   -1.3856   -2.4000    0.0000 C   0  0  0  0  0  0  0  0  0  0  0  0
   -1.3856   -4.0000    0.0000 H   0  0  0  0  0  0  0  0  0  0  0  0
   -2.7713   -1.6000    0.0000 C   0  0  0  0  0  0  0  0  0  0  0  0
   -4.1569   -2.4000    0.0000 H   0  0  0  0  0  0  0  0  0  0  0  0
   -2.7713   -0.0000    0.0000 C   0  0  0  0  0  0  0  0  0  0  0  0
   -4.1569    0.8000    0.0000 N   0  0  0  0  0  0  0  0  0  0  0  0
   -5.5426   -0.0000    0.0000 O   0  0  0  0  0  0  0  0  0  0  0  0
   -4.1569    2.4000    0.0000 O   0  0  0  0  0  0  0  0  0  0  0  0
   -1.3856    0.8000    0.0000 C   0  0  0  0  0  0  0  0  0  0  0  0
   -1.3856    2.4000    0.0000 H   0  0  0  0  0  0  0  0  0  0  0  0
  1  2  1  0  0  0  0
  1  3  1  0  0  0  0
  1  4  1  0  0  0  0
  1  5  1  0  0  0  0
  5  6  1  0  0  0  0
  5  7  1  0  0  0  0
  5  8  1  0  0  0  0
  8  9  1  0  0  0  0
  9 10  2  0  0  0  0
  9 11  1  0  0  0  0
 11 12  1  0  0  0  0
 12 13  1  0  0  0  0
 12 14  2  0  0  0  0
 14 15  1  0  0  0  0
 14 16  1  0  0  0  0
 16 17  1  0  0  0  0
 16 18  2  0  0  0  0
 18 19  1  0  0  0  0
 19 20  2  0  0  0  0
 19 21  1  0  0  0  0
 18 22  1  0  0  0  0
 22 11  2  0  0  0  0
 22 23  1  0  0  0  0
M  CHG  2  19   1  21  -1
M  END
> <ChemID>
102761

> <source_casrn>
618-98-4

> <CAS>
618-98-4

> <SMILES>
CCOC(=O)c1cc(ccc1)[N+]([O-])=O

> <NAME>
ETHYL-M-NITROBENZOATE

> <preferred_name>
Benzoic acid, 3-nitro-, ethyl ester

> <iupac>
Ethyl 3-nitrobenzoate

> <MPID>
21756

> <dsstox_substance_id>
DTXSID0060692

> <Canonical_QSARr>
CCOC(=O)c1cc(ccc1)[N+]([O-])=O

> <InChI_Code_QSARr>
InChI=1S/C9H9NO4/c1-2-14-9(11)7-4-3-5-8(6-7)10(12)13/h3-6H,2H2,1H3

> <InChI Key_QSARr>
MKBIJCPQTPFQKQ-UHFFFAOYSA-N

> <Salt_Solvent>
?

> <BP>
297.0

$$$$
102766
  -INDIGO-08031720192D

 22 21  0  0  0  0  0  0  0  0999 V2000
    0.0001    0.0000    0.0000 C   0  0  0  0  0  0  0  0  0  0  0  0
    1.6000    0.0000    0.0000 H   0  0  0  0  0  0  0  0  0  0  0  0
    0.8000    1.3856    0.0000 O   0  0  0  0  0  0  0  0  0  0  0  0
    2.4000    1.3856    0.0000 C   0  0  0  0  0  0  0  0  0  0  0  0
    2.6089   -0.2007    0.0000 H   0  0  0  0  0  0  0  0  0  0  0  0
    3.6694    0.4117    0.0000 H   0  0  0  0  0  0  0  0  0  0  0  0
    3.2001    2.7713    0.0000 C   0  0  0  0  0  0  0  0  0  0  0  0
    4.0000    4.1569    0.0000 H   0  0  0  0  0  0  0  0  0  0  0  0
    4.8000    2.7713    0.0000 H   0  0  0  0  0  0  0  0  0  0  0  0
    2.4000    4.1569    0.0000 H   0  0  0  0  0  0  0  0  0  0  0  0
   -0.8000    1.3856    0.0000 O   0  0  0  0  0  0  0  0  0  0  0  0
   -2.4000    1.3856    0.0000 C   0  0  0  0  0  0  0  0  0  0  0  0
   -3.6694    0.4117    0.0000 H   0  0  0  0  0  0  0  0  0  0  0  0
   -2.6089   -0.2007    0.0000 H   0  0  0  0  0  0  0  0  0  0  0  0
   -3.2001    2.7713    0.0000 C   0  0  0  0  0  0  0  0  0  0  0  0
   -4.0000    4.1569    0.0000 H   0  0  0  0  0  0  0  0  0  0  0  0
   -4.8000    2.7713    0.0000 H   0  0  0  0  0  0  0  0  0  0  0  0
   -2.4000    4.1569    0.0000 H   0  0  0  0  0  0  0  0  0  0  0  0
   -0.8000   -1.3856    0.0000 C   0  0  0  0  0  0  0  0  0  0  0  0
   -1.6000   -2.7713    0.0000 H   0  0  0  0  0  0  0  0  0  0  0  0
    0.0001   -2.7713    0.0000 Cl  0  0  0  0  0  0  0  0  0  0  0  0
   -2.4000   -1.3856    0.0000 Cl  0  0  0  0  0  0  0  0  0  0  0  0
  1  2  1  0  0  0  0
  1  3  1  0  0  0  0
  3  4  1  0  0  0  0
  4  5  1  0  0  0  0
  4  6  1  0  0  0  0
  4  7  1  0  0  0  0
  7  8  1  0  0  0  0
  7  9  1  0  0  0  0
  7 10  1  0  0  0  0
  1 11  1  0  0  0  0
 11 12  1  0  0  0  0
 12 13  1  0  0  0  0
 12 14  1  0  0  0  0
 12 15  1  0  0  0  0
 15 16  1  0  0  0  0
 15 17  1  0  0  0  0
 15 18  1  0  0  0  0
  1 19  1  0  0  0  0
 19 20  1  0  0  0  0
 19 21  1  0  0  0  0
 19 22  1  0  0  0  0
M  END
> <ChemID>
102766

> <source_casrn>
619-33-0

> <CAS>
619-33-0

> <SMILES>
CCOC(OCC)C(Cl)Cl

> <NAME>
1,1-DICHLORO-2,2-DIETHOXYETHANE

> <preferred_name>
1,1-Dichloro-2,2-diethoxyethane

> <iupac>
1,1-DICHLORO-2,2-DIETHOXYETHANE

> <MPID>
21760

> <dsstox_substance_id>
DTXSID7060700

> <Canonical_QSARr>
CCOC(OCC)C(Cl)Cl

> <InChI_Code_QSARr>
InChI=1S/C6H12Cl2O2/c1-3-9-6(5(7)8)10-4-2/h5-6H,3-4H2,1-2H3

> <InChI Key_QSARr>
CDHLQZJRWKQATP-UHFFFAOYSA-N

> <Salt_Solvent>
?

> <BP>
183.5

$$$$
102770
  -INDIGO-08031720192D

 23 22  0  0  0  0  0  0  0  0999 V2000
   -1.3856   -0.7999    0.0000 O   0  0  0  0  0  0  0  0  0  0  0  0
    0.0000    0.0000    0.0000 C   0  0  0  0  0  0  0  0  0  0  0  0
    1.3857    0.8000    0.0000 H   0  0  0  0  0  0  0  0  0  0  0  0
   -0.8000    1.3857    0.0000 C   0  0  0  0  0  0  0  0  0  0  0  0
   -2.2782    1.9980    0.0000 H   0  0  0  0  0  0  0  0  0  0  0  0
   -2.2782    0.7733    0.0000 H   0  0  0  0  0  0  0  0  0  0  0  0
    0.0000    2.7713    0.0000 C   0  0  0  0  0  0  0  0  0  0  0  0
    0.8001    4.1569    0.0000 H   0  0  0  0  0  0  0  0  0  0  0  0
   -0.8000    4.1569    0.0000 H   0  0  0  0  0  0  0  0  0  0  0  0
    1.5999    2.7713    0.0000 H   0  0  0  0  0  0  0  0  0  0  0  0
    0.8001   -1.3856    0.0000 C   0  0  0  0  0  0  0  0  0  0  0  0
   -0.4693   -2.3596    0.0000 H   0  0  0  0  0  0  0  0  0  0  0  0
    0.5912   -2.9720    0.0000 H   0  0  0  0  0  0  0  0  0  0  0  0
    2.4000   -1.3856    0.0000 C   0  0  0  0  0  0  0  0  0  0  0  0
    4.0000   -1.3856    0.0000 H   0  0  0  0  0  0  0  0  0  0  0  0
    3.2000   -2.7713    0.0000 H   0  0  0  0  0  0  0  0  0  0  0  0
    3.2000    0.0000    0.0000 H   0  0  0  0  0  0  0  0  0  0  0  0
   -2.8892   -0.2528    0.0000 C   0  0  0  0  0  0  0  0  0  0  0  0
   -3.1670    1.3229    0.0000 O   0  0  0  0  0  0  0  0  0  0  0  0
   -4.1149   -1.2812    0.0000 C   0  0  0  0  0  0  0  0  0  0  0  0
   -5.3405   -2.3097    0.0000 H   0  0  0  0  0  0  0  0  0  0  0  0
   -5.6183   -0.7340    0.0000 H   0  0  0  0  0  0  0  0  0  0  0  0
   -3.8370   -2.8570    0.0000 H   0  0  0  0  0  0  0  0  0  0  0  0
  1  2  1  0  0  0  0
  2  3  1  0  0  0  0
  2  4  1  0  0  0  0
  4  5  1  0  0  0  0
  4  6  1  0  0  0  0
  4  7  1  0  0  0  0
  7  8  1  0  0  0  0
  7  9  1  0  0  0  0
  7 10  1  0  0  0  0
  2 11  1  0  0  0  0
 11 12  1  0  0  0  0
 11 13  1  0  0  0  0
 11 14  1  0  0  0  0
 14 15  1  0  0  0  0
 14 16  1  0  0  0  0
 14 17  1  0  0  0  0
  1 18  1  0  0  0  0
 18 19  2  0  0  0  0
 18 20  1  0  0  0  0
 20 21  1  0  0  0  0
 20 22  1  0  0  0  0
 20 23  1  0  0  0  0
M  END
> <ChemID>
102770

> <source_casrn>
620-11-1

> <CAS>
620-11-1

> <SMILES>
CC(=O)OC(CC)CC

> <NAME>
3-Pentyl acetate

> <preferred_name>
3-Pentanol, acetate (8CI)(9CI)

> <iupac>
pentan-3-yl acetate

> <MPID>
21764

> <dsstox_substance_id>
DTXSID20211030

> <Canonical_QSARr>
CC(=O)OC(CC)CC

> <InChI_Code_QSARr>
InChI=1S/C7H14O2/c1-4-7(5-2)9-6(3)8/h7H,4-5H2,1-3H3

> <InChI Key_QSARr>
PBKYSIMDORTIEU-UHFFFAOYSA-N

> <Salt_Solvent>
?

> <BP>
133.0

$$$$
102774
  -INDIGO-08031720192D

 18 18  0  0  0  0  0  0  0  0999 V2000
   -4.8001    2.7713    0.0000 Cl  0  0  0  0  0  0  0  0  0  0  0  0
   -4.0000    1.3856    0.0000 C   0  0  0  0  0  0  0  0  0  0  0  0
   -2.4000    1.3856    0.0000 C   0  0  0  0  0  0  0  0  0  0  0  0
   -1.6000    2.7713    0.0000 H   0  0  0  0  0  0  0  0  0  0  0  0
   -1.6000    0.0000    0.0000 C   0  0  0  0  0  0  0  0  0  0  0  0
    0.0000    0.0000    0.0000 C   0  0  0  0  0  0  0  0  0  0  0  0
    1.2694    0.9740    0.0000 H   0  0  0  0  0  0  0  0  0  0  0  0
    0.2088    1.5863    0.0000 H   0  0  0  0  0  0  0  0  0  0  0  0
    0.8001   -1.3856    0.0000 C   0  0  0  0  0  0  0  0  0  0  0  0
    2.4000   -1.3856    0.0000 H   0  0  0  0  0  0  0  0  0  0  0  0
    1.6000   -2.7713    0.0000 H   0  0  0  0  0  0  0  0  0  0  0  0
    1.6000    0.0000    0.0000 H   0  0  0  0  0  0  0  0  0  0  0  0
   -2.4000   -1.3856    0.0000 C   0  0  0  0  0  0  0  0  0  0  0  0
   -1.6000   -2.7713    0.0000 H   0  0  0  0  0  0  0  0  0  0  0  0
   -4.0000   -1.3856    0.0000 C   0  0  0  0  0  0  0  0  0  0  0  0
   -4.8001   -2.7713    0.0000 H   0  0  0  0  0  0  0  0  0  0  0  0
   -4.8001   -0.0000    0.0000 C   0  0  0  0  0  0  0  0  0  0  0  0
   -6.4000    0.0000    0.0000 H   0  0  0  0  0  0  0  0  0  0  0  0
  1  2  1  0  0  0  0
  2  3  1  0  0  0  0
  3  4  1  0  0  0  0
  3  5  2  0  0  0  0
  5  6  1  0  0  0  0
  6  7  1  0  0  0  0
  6  8  1  0  0  0  0
  6  9  1  0  0  0  0
  9 10  1  0  0  0  0
  9 11  1  0  0  0  0
  9 12  1  0  0  0  0
  5 13  1  0  0  0  0
 13 14  1  0  0  0  0
 13 15  2  0  0  0  0
 15 16  1  0  0  0  0
 15 17  1  0  0  0  0
 17  2  2  0  0  0  0
 17 18  1  0  0  0  0
M  END
> <ChemID>
102774

> <source_casrn>
620-16-6

> <CAS>
620-16-6

> <SMILES>
CCc1cccc(Cl)c1

> <NAME>
BENZENE, 1-CHLORO-3-ETHYL-

> <preferred_name>
Benzene, 1-chloro-3-ethyl-

> <iupac>
1-Chloro-3-ethylbenzene

> <MPID>
21768

> <dsstox_substance_id>
DTXSID40211032

> <Canonical_QSARr>
CCc1cccc(Cl)c1

> <InChI_Code_QSARr>
InChI=1S/C8H9Cl/c1-2-7-4-3-5-8(9)6-7/h3-6H,2H2,1H3

> <InChI Key_QSARr>
LOXUEGMPESDGBQ-UHFFFAOYSA-N

> <Salt_Solvent>
?

> <BP>
183.8

$$$$
102778
  -INDIGO-08031720192D

 16 16  0  0  0  0  0  0  0  0999 V2000
    4.1569    0.8000    0.0000 C   0  0  0  0  0  0  0  0  0  0  0  0
    5.5426    1.6000    0.0000 N   0  0  0  0  0  0  0  0  0  0  0  0
    2.7713   -0.0000    0.0000 C   0  0  0  0  0  0  0  0  0  0  0  0
    2.7713   -1.6000    0.0000 C   0  0  0  0  0  0  0  0  0  0  0  0
    4.1570   -2.4000    0.0000 H   0  0  0  0  0  0  0  0  0  0  0  0
    1.3857   -2.4000    0.0000 C   0  0  0  0  0  0  0  0  0  0  0  0
    1.3857   -4.0000    0.0000 H   0  0  0  0  0  0  0  0  0  0  0  0
    0.0000   -1.6000    0.0000 C   0  0  0  0  0  0  0  0  0  0  0  0
   -1.3856   -2.4000    0.0000 H   0  0  0  0  0  0  0  0  0  0  0  0
    0.0000   -0.0000    0.0000 C   0  0  0  0  0  0  0  0  0  0  0  0
   -1.3856    0.8000    0.0000 C   0  0  0  0  0  0  0  0  0  0  0  0
   -2.7713    1.6000    0.0000 H   0  0  0  0  0  0  0  0  0  0  0  0
   -2.7713   -0.0000    0.0000 H   0  0  0  0  0  0  0  0  0  0  0  0
   -1.3856    2.4000    0.0000 H   0  0  0  0  0  0  0  0  0  0  0  0
    1.3857    0.8000    0.0000 C   0  0  0  0  0  0  0  0  0  0  0  0
    1.3857    2.4000    0.0000 H   0  0  0  0  0  0  0  0  0  0  0  0
  1  2  3  0  0  0  0
  1  3  1  0  0  0  0
  3  4  1  0  0  0  0
  4  5  1  0  0  0  0
  4  6  2  0  0  0  0
  6  7  1  0  0  0  0
  6  8  1  0  0  0  0
  8  9  1  0  0  0  0
  8 10  2  0  0  0  0
 10 11  1  0  0  0  0
 11 12  1  0  0  0  0
 11 13  1  0  0  0  0
 11 14  1  0  0  0  0
 10 15  1  0  0  0  0
 15  3  2  0  0  0  0
 15 16  1  0  0  0  0
M  END
> <ChemID>
102778

> <source_casrn>
620-22-4

> <CAS>
620-22-4

> <SMILES>
Cc1cc(ccc1)C#N

> <NAME>
Benzonitrile, 3-methyl-

> <preferred_name>
3-Methylbenzonitrile

> <iupac>
3-methylbenzonitrile

> <MPID>
21772

> <dsstox_substance_id>
DTXSID6026167

> <Canonical_QSARr>
Cc1cc(ccc1)C#N

> <InChI_Code_QSARr>
InChI=1S/C8H7N/c1-7-3-2-4-8(5-7)6-9/h2-5H,1H3

> <InChI Key_QSARr>
BOHCMQZJWOGWTA-UHFFFAOYSA-N

> <Salt_Solvent>
?

> <BP>
213.0

$$$$
102782
  -INDIGO-08031720192D

 22 22  0  0  0  0  0  0  0  0999 V2000
   -4.1569   -0.8000    0.0000 C   0  0  0  0  0  0  0  0  0  0  0  0
   -2.7712   -0.0000    0.0000 N   0  0  0  0  0  0  0  0  0  0  0  0
   -2.7714    1.6000    0.0000 H   0  0  0  0  0  0  0  0  0  0  0  0
   -1.3857   -0.8000    0.0000 C   0  0  0  0  0  0  0  0  0  0  0  0
   -0.0000   -0.0000    0.0000 C   0  0  0  0  0  0  0  0  0  0  0  0
    0.6123    1.4782    0.0000 H   0  0  0  0  0  0  0  0  0  0  0  0
   -0.6124    1.4782    0.0000 H   0  0  0  0  0  0  0  0  0  0  0  0
    1.3856   -0.8000    0.0000 C   0  0  0  0  0  0  0  0  0  0  0  0
    2.7713   -1.6000    0.0000 H   0  0  0  0  0  0  0  0  0  0  0  0
    2.7713   -0.0000    0.0000 H   0  0  0  0  0  0  0  0  0  0  0  0
    1.3856   -2.4000    0.0000 H   0  0  0  0  0  0  0  0  0  0  0  0
   -1.3857   -2.4000    0.0000 O   0  0  0  0  0  0  0  0  0  0  0  0
   -4.1569   -2.4000    0.0000 C   0  0  0  0  0  0  0  0  0  0  0  0
   -2.7712   -3.2000    0.0000 H   0  0  0  0  0  0  0  0  0  0  0  0
   -5.5425   -3.2000    0.0000 C   0  0  0  0  0  0  0  0  0  0  0  0
   -5.5425   -4.8000    0.0000 H   0  0  0  0  0  0  0  0  0  0  0  0
   -6.9282   -2.4000    0.0000 C   0  0  0  0  0  0  0  0  0  0  0  0
   -8.3138   -3.2000    0.0000 H   0  0  0  0  0  0  0  0  0  0  0  0
   -6.9282   -0.8000    0.0000 C   0  0  0  0  0  0  0  0  0  0  0  0
   -8.3138   -0.0000    0.0000 H   0  0  0  0  0  0  0  0  0  0  0  0
   -5.5425   -0.0000    0.0000 C   0  0  0  0  0  0  0  0  0  0  0  0
   -5.5425    1.6000    0.0000 H   0  0  0  0  0  0  0  0  0  0  0  0
  1  2  1  0  0  0  0
  2  3  1  0  0  0  0
  2  4  1  0  0  0  0
  4  5  1  0  0  0  0
  5  6  1  0  0  0  0
  5  7  1  0  0  0  0
  5  8  1  0  0  0  0
  8  9  1  0  0  0  0
  8 10  1  0  0  0  0
  8 11  1  0  0  0  0
  4 12  2  0  0  0  0
  1 13  1  0  0  0  0
 13 14  1  0  0  0  0
 13 15  2  0  0  0  0
 15 16  1  0  0  0  0
 15 17  1  0  0  0  0
 17 18  1  0  0  0  0
 17 19  2  0  0  0  0
 19 20  1  0  0  0  0
 19 21  1  0  0  0  0
 21  1  2  0  0  0  0
 21 22  1  0  0  0  0
M  END
> <ChemID>
102782

> <source_casrn>
620-71-3

> <CAS>
620-71-3

> <SMILES>
CCC(=O)Nc1ccccc1

> <NAME>
PROPIONANILIDE

> <preferred_name>
N-Phenylpropanamide

> <iupac>
N-Phenylpropanamide

> <MPID>
21776

> <dsstox_substance_id>
DTXSID0060721

> <Canonical_QSARr>
CCC(=O)Nc1ccccc1

> <InChI_Code_QSARr>
InChI=1S/C9H11NO/c1-2-9(11)10-8-6-4-3-5-7-8/h3-7H,2H2,1H3,(H,10,11)

> <InChI Key_QSARr>
ZTHRQJQJODGZHV-UHFFFAOYSA-N

> <Salt_Solvent>
?

> <BP>
222.2

$$$$
102788
  -INDIGO-08031720192D

 25 26  0  0  0  0  0  0  0  0999 V2000
   -3.5086    0.9813    0.0000 C   0  0  0  0  0  0  0  0  0  0  0  0
   -2.4800    2.2071    0.0000 H   0  0  0  0  0  0  0  0  0  0  0  0
   -5.0842    1.2591    0.0000 C   0  0  0  0  0  0  0  0  0  0  0  0
   -5.6315    2.7627    0.0000 H   0  0  0  0  0  0  0  0  0  0  0  0
   -6.1126    0.0335    0.0000 C   0  0  0  0  0  0  0  0  0  0  0  0
   -7.6884    0.3113    0.0000 H   0  0  0  0  0  0  0  0  0  0  0  0
   -5.5655   -1.4700    0.0000 C   0  0  0  0  0  0  0  0  0  0  0  0
   -6.5940   -2.6957    0.0000 H   0  0  0  0  0  0  0  0  0  0  0  0
   -3.9898   -1.7479    0.0000 C   0  0  0  0  0  0  0  0  0  0  0  0
   -3.4426   -3.2513    0.0000 H   0  0  0  0  0  0  0  0  0  0  0  0
   -2.9613   -0.5222    0.0000 C   0  0  0  0  0  0  0  0  0  0  0  0
   -1.3856   -0.8000    0.0000 O   0  0  0  0  0  0  0  0  0  0  0  0
    0.0000   -0.0001    0.0000 C   0  0  0  0  0  0  0  0  0  0  0  0
    0.0000    1.6000    0.0000 C   0  0  0  0  0  0  0  0  0  0  0  0
   -1.3856    2.4000    0.0000 H   0  0  0  0  0  0  0  0  0  0  0  0
    1.3856    2.4000    0.0000 C   0  0  0  0  0  0  0  0  0  0  0  0
    1.3856    4.0000    0.0000 H   0  0  0  0  0  0  0  0  0  0  0  0
    2.7712    1.6000    0.0000 C   0  0  0  0  0  0  0  0  0  0  0  0
    4.1570    2.4000    0.0000 N   0  0  0  0  0  0  0  0  0  0  0  0
    5.5426    1.6000    0.0000 O   0  0  0  0  0  0  0  0  0  0  0  0
    4.1570    4.0000    0.0000 O   0  0  0  0  0  0  0  0  0  0  0  0
    2.7712   -0.0001    0.0000 C   0  0  0  0  0  0  0  0  0  0  0  0
    4.1570   -0.8000    0.0000 H   0  0  0  0  0  0  0  0  0  0  0  0
    1.3856   -0.8000    0.0000 C   0  0  0  0  0  0  0  0  0  0  0  0
    1.3856   -2.4000    0.0000 H   0  0  0  0  0  0  0  0  0  0  0  0
  1  2  1  0  0  0  0
  1  3  1  0  0  0  0
  3  4  1  0  0  0  0
  3  5  2  0  0  0  0
  5  6  1  0  0  0  0
  5  7  1  0  0  0  0
  7  8  1  0  0  0  0
  7  9  2  0  0  0  0
  9 10  1  0  0  0  0
  9 11  1  0  0  0  0
 11  1  2  0  0  0  0
 11 12  1  0  0  0  0
 12 13  1  0  0  0  0
 13 14  1  0  0  0  0
 14 15  1  0  0  0  0
 14 16  2  0  0  0  0
 16 17  1  0  0  0  0
 16 18  1  0  0  0  0
 18 19  1  0  0  0  0
 19 20  2  0  0  0  0
 19 21  1  0  0  0  0
 18 22  2  0  0  0  0
 22 23  1  0  0  0  0
 22 24  1  0  0  0  0
 24 13  2  0  0  0  0
 24 25  1  0  0  0  0
M  CHG  2  19   1  21  -1
M  END
> <ChemID>
102788

> <source_casrn>
620-88-2

> <CAS>
620-88-2

> <SMILES>
[O-][N+](=O)c1ccc(cc1)Oc1ccccc1

> <NAME>
4-NITRO DIPHENYL ETHER

> <preferred_name>
4-Nitrophenyl phenyl ether

> <iupac>
1-nitro-4-phenoxybenzene

> <MPID>
21780

> <dsstox_substance_id>
DTXSID3022087

> <Canonical_QSARr>
[O-][N+](=O)c1ccc(cc1)Oc1ccccc1

> <InChI_Code_QSARr>
InChI=1S/C12H9NO3/c14-13(15)10-6-8-12(9-7-10)16-11-4-2-1-3-5-11/h1-9H

> <InChI Key_QSARr>
JDTMUJBWSGNMGR-UHFFFAOYSA-N

> <Salt_Solvent>
?

> <BP>
320.0

$$$$
102792
  -INDIGO-08031720192D

 24 24  0  0  0  0  0  0  0  0999 V2000
    2.4000    1.3857    0.0000 C   0  0  0  0  0  0  0  0  0  0  0  0
    3.2000    2.7713    0.0000 H   0  0  0  0  0  0  0  0  0  0  0  0
    4.0000    1.3857    0.0000 H   0  0  0  0  0  0  0  0  0  0  0  0
    1.6001    2.7713    0.0000 H   0  0  0  0  0  0  0  0  0  0  0  0
    0.7999    1.3857    0.0000 O   0  0  0  0  0  0  0  0  0  0  0  0
   -0.0000    0.0000    0.0000 C   0  0  0  0  0  0  0  0  0  0  0  0
    0.7999   -1.3856    0.0000 C   0  0  0  0  0  0  0  0  0  0  0  0
    2.4000   -1.3856    0.0000 H   0  0  0  0  0  0  0  0  0  0  0  0
   -0.0000   -2.7713    0.0000 C   0  0  0  0  0  0  0  0  0  0  0  0
    0.7999   -4.1570    0.0000 O   0  0  0  0  0  0  0  0  0  0  0  0
   -0.0000   -5.5426    0.0000 C   0  0  0  0  0  0  0  0  0  0  0  0
    0.7999   -6.9282    0.0000 H   0  0  0  0  0  0  0  0  0  0  0  0
   -0.8000   -6.9282    0.0000 H   0  0  0  0  0  0  0  0  0  0  0  0
    1.6001   -5.5426    0.0000 H   0  0  0  0  0  0  0  0  0  0  0  0
   -1.6000   -2.7713    0.0000 C   0  0  0  0  0  0  0  0  0  0  0  0
   -2.4000   -4.1570    0.0000 H   0  0  0  0  0  0  0  0  0  0  0  0
   -2.4000   -1.3856    0.0000 C   0  0  0  0  0  0  0  0  0  0  0  0
   -4.0001   -1.3856    0.0000 O   0  0  0  0  0  0  0  0  0  0  0  0
   -4.8000    0.0000    0.0000 C   0  0  0  0  0  0  0  0  0  0  0  0
   -6.4000    0.0000    0.0000 H   0  0  0  0  0  0  0  0  0  0  0  0
   -5.6000    1.3857    0.0000 H   0  0  0  0  0  0  0  0  0  0  0  0
   -5.6000   -1.3856    0.0000 H   0  0  0  0  0  0  0  0  0  0  0  0
   -1.6000    0.0000    0.0000 C   0  0  0  0  0  0  0  0  0  0  0  0
   -2.4000    1.3857    0.0000 H   0  0  0  0  0  0  0  0  0  0  0  0
  1  2  1  0  0  0  0
  1  3  1  0  0  0  0
  1  4  1  0  0  0  0
  1  5  1  0  0  0  0
  5  6  1  0  0  0  0
  6  7  1  0  0  0  0
  7  8  1  0  0  0  0
  7  9  2  0  0  0  0
  9 10  1  0  0  0  0
 10 11  1  0  0  0  0
 11 12  1  0  0  0  0
 11 13  1  0  0  0  0
 11 14  1  0  0  0  0
  9 15  1  0  0  0  0
 15 16  1  0  0  0  0
 15 17  2  0  0  0  0
 17 18  1  0  0  0  0
 18 19  1  0  0  0  0
 19 20  1  0  0  0  0
 19 21  1  0  0  0  0
 19 22  1  0  0  0  0
 17 23  1  0  0  0  0
 23  6  2  0  0  0  0
 23 24  1  0  0  0  0
M  END
> <ChemID>
102792

> <source_casrn>
621-23-8

> <CAS>
621-23-8

> <SMILES>
COc1cc(cc(c1)OC)OC

> <NAME>
Benzene, 1,3,5-trimethoxy-

> <preferred_name>
1,3,5-Trimethoxybenzene

> <iupac>
1,3,5-trimethoxybenzene

> <MPID>
21784

> <dsstox_substance_id>
DTXSID0045963

> <Canonical_QSARr>
COc1cc(cc(c1)OC)OC

> <InChI_Code_QSARr>
InChI=1S/C9H12O3/c1-10-7-4-8(11-2)6-9(5-7)12-3/h4-6H,1-3H3

> <InChI Key_QSARr>
LKUDPHPHKOZXCD-UHFFFAOYSA-N

> <Salt_Solvent>
?

> <BP>
255.5

$$$$
102796
  -INDIGO-08031720192D

 22 21  0  0  0  0  0  0  0  0999 V2000
    0.0001    0.0000    0.0000 C   0  0  0  0  0  0  0  0  0  0  0  0
    1.6000    0.0000    0.0000 H   0  0  0  0  0  0  0  0  0  0  0  0
    0.8000    1.3856    0.0000 O   0  0  0  0  0  0  0  0  0  0  0  0
    2.4000    1.3856    0.0000 C   0  0  0  0  0  0  0  0  0  0  0  0
    2.6089   -0.2007    0.0000 H   0  0  0  0  0  0  0  0  0  0  0  0
    3.6694    0.4117    0.0000 H   0  0  0  0  0  0  0  0  0  0  0  0
    3.2001    2.7713    0.0000 C   0  0  0  0  0  0  0  0  0  0  0  0
    4.0000    4.1569    0.0000 H   0  0  0  0  0  0  0  0  0  0  0  0
    4.8000    2.7713    0.0000 H   0  0  0  0  0  0  0  0  0  0  0  0
    2.4000    4.1569    0.0000 H   0  0  0  0  0  0  0  0  0  0  0  0
   -0.8000    1.3856    0.0000 O   0  0  0  0  0  0  0  0  0  0  0  0
   -2.4000    1.3856    0.0000 C   0  0  0  0  0  0  0  0  0  0  0  0
   -3.6694    0.4117    0.0000 H   0  0  0  0  0  0  0  0  0  0  0  0
   -2.6089   -0.2007    0.0000 H   0  0  0  0  0  0  0  0  0  0  0  0
   -3.2001    2.7713    0.0000 C   0  0  0  0  0  0  0  0  0  0  0  0
   -4.0000    4.1569    0.0000 H   0  0  0  0  0  0  0  0  0  0  0  0
   -4.8000    2.7713    0.0000 H   0  0  0  0  0  0  0  0  0  0  0  0
   -2.4000    4.1569    0.0000 H   0  0  0  0  0  0  0  0  0  0  0  0
   -0.8000   -1.3856    0.0000 C   0  0  0  0  0  0  0  0  0  0  0  0
   -1.6000   -2.7713    0.0000 H   0  0  0  0  0  0  0  0  0  0  0  0
    0.0001   -2.7713    0.0000 H   0  0  0  0  0  0  0  0  0  0  0  0
   -2.4000   -1.3856    0.0000 Cl  0  0  0  0  0  0  0  0  0  0  0  0
  1  2  1  0  0  0  0
  1  3  1  0  0  0  0
  3  4  1  0  0  0  0
  4  5  1  0  0  0  0
  4  6  1  0  0  0  0
  4  7  1  0  0  0  0
  7  8  1  0  0  0  0
  7  9  1  0  0  0  0
  7 10  1  0  0  0  0
  1 11  1  0  0  0  0
 11 12  1  0  0  0  0
 12 13  1  0  0  0  0
 12 14  1  0  0  0  0
 12 15  1  0  0  0  0
 15 16  1  0  0  0  0
 15 17  1  0  0  0  0
 15 18  1  0  0  0  0
  1 19  1  0  0  0  0
 19 20  1  0  0  0  0
 19 21  1  0  0  0  0
 19 22  1  0  0  0  0
M  END
> <ChemID>
102796

> <source_casrn>
621-62-5

> <CAS>
621-62-5

> <SMILES>
CCOC(CCl)OCC

> <NAME>
Ethane, 2-chloro-1,1-diethoxy-

> <preferred_name>
Ethane, 2-chloro-1,1-diethoxy-

> <iupac>
2-Chloro-1,1-diethoxyethane

> <MPID>
21788

> <dsstox_substance_id>
DTXSID4060735

> <Canonical_QSARr>
CCOC(CCl)OCC

> <InChI_Code_QSARr>
InChI=1S/C6H13ClO2/c1-3-8-6(5-7)9-4-2/h6H,3-5H2,1-2H3

> <InChI Key_QSARr>
OVXJWSYBABKZMD-UHFFFAOYSA-N

> <Salt_Solvent>
?

> <BP>
157.4

$$$$
102800
  -INDIGO-08031720192D

 49 48  0  0  0  0  0  0  0  0999 V2000
    6.8082    1.8956    0.0000 C   0  0  0  0  0  0  0  0  0  0  0  0
    8.3840    1.6179    0.0000 H   0  0  0  0  0  0  0  0  0  0  0  0
    7.8368    3.1214    0.0000 H   0  0  0  0  0  0  0  0  0  0  0  0
    7.3555    0.3921    0.0000 H   0  0  0  0  0  0  0  0  0  0  0  0
    5.2327    2.1736    0.0000 C   0  0  0  0  0  0  0  0  0  0  0  0
    4.1517    3.3531    0.0000 H   0  0  0  0  0  0  0  0  0  0  0  0
    5.3023    3.7720    0.0000 H   0  0  0  0  0  0  0  0  0  0  0  0
    4.2042    0.9478    0.0000 C   0  0  0  0  0  0  0  0  0  0  0  0
    5.2851   -0.2319    0.0000 H   0  0  0  0  0  0  0  0  0  0  0  0
    4.1343   -0.6505    0.0000 H   0  0  0  0  0  0  0  0  0  0  0  0
    2.6284    1.2256    0.0000 C   0  0  0  0  0  0  0  0  0  0  0  0
    1.5474    2.4053    0.0000 H   0  0  0  0  0  0  0  0  0  0  0  0
    2.6982    2.8242    0.0000 H   0  0  0  0  0  0  0  0  0  0  0  0
    1.6001    0.0001    0.0000 C   0  0  0  0  0  0  0  0  0  0  0  0
    2.8693   -0.9739    0.0000 H   0  0  0  0  0  0  0  0  0  0  0  0
    1.8089   -1.5864    0.0000 H   0  0  0  0  0  0  0  0  0  0  0  0
    0.0000    0.0001    0.0000 N   0  0  0  0  0  0  0  0  0  0  0  0
   -0.8000    1.3857    0.0000 C   0  0  0  0  0  0  0  0  0  0  0  0
   -0.5912    2.9719    0.0000 H   0  0  0  0  0  0  0  0  0  0  0  0
    0.4694    2.3597    0.0000 H   0  0  0  0  0  0  0  0  0  0  0  0
   -2.3758    1.6635    0.0000 C   0  0  0  0  0  0  0  0  0  0  0  0
   -2.8568    0.1376    0.0000 H   0  0  0  0  0  0  0  0  0  0  0  0
   -3.7949    0.9246    0.0000 H   0  0  0  0  0  0  0  0  0  0  0  0
   -2.9230    3.1670    0.0000 C   0  0  0  0  0  0  0  0  0  0  0  0
   -2.4417    4.6929    0.0000 H   0  0  0  0  0  0  0  0  0  0  0  0
   -1.5036    3.9057    0.0000 H   0  0  0  0  0  0  0  0  0  0  0  0
   -4.4985    3.4448    0.0000 C   0  0  0  0  0  0  0  0  0  0  0  0
   -4.9798    1.9189    0.0000 H   0  0  0  0  0  0  0  0  0  0  0  0
   -5.9179    2.7061    0.0000 H   0  0  0  0  0  0  0  0  0  0  0  0
   -5.0458    4.9483    0.0000 C   0  0  0  0  0  0  0  0  0  0  0  0
   -5.5930    6.4518    0.0000 H   0  0  0  0  0  0  0  0  0  0  0  0
   -6.6215    5.2261    0.0000 H   0  0  0  0  0  0  0  0  0  0  0  0
   -4.0175    6.1741    0.0000 H   0  0  0  0  0  0  0  0  0  0  0  0
   -0.8000   -1.3856    0.0000 C   0  0  0  0  0  0  0  0  0  0  0  0
   -2.2782   -1.9980    0.0000 H   0  0  0  0  0  0  0  0  0  0  0  0
   -2.2782   -0.7734    0.0000 H   0  0  0  0  0  0  0  0  0  0  0  0
   -0.2527   -2.8891    0.0000 C   0  0  0  0  0  0  0  0  0  0  0  0
    1.3093   -2.5429    0.0000 H   0  0  0  0  0  0  0  0  0  0  0  0
    1.0966   -3.7488    0.0000 H   0  0  0  0  0  0  0  0  0  0  0  0
   -1.2813   -4.1149    0.0000 C   0  0  0  0  0  0  0  0  0  0  0  0
   -2.8433   -4.4611    0.0000 H   0  0  0  0  0  0  0  0  0  0  0  0
   -2.6306   -3.2552    0.0000 H   0  0  0  0  0  0  0  0  0  0  0  0
   -0.7340   -5.6184    0.0000 C   0  0  0  0  0  0  0  0  0  0  0  0
    0.8280   -5.2720    0.0000 H   0  0  0  0  0  0  0  0  0  0  0  0
    0.6155   -6.4779    0.0000 H   0  0  0  0  0  0  0  0  0  0  0  0
   -1.7623   -6.8440    0.0000 C   0  0  0  0  0  0  0  0  0  0  0  0
   -2.7909   -8.0697    0.0000 H   0  0  0  0  0  0  0  0  0  0  0  0
   -1.2153   -8.3475    0.0000 H   0  0  0  0  0  0  0  0  0  0  0  0
   -3.3381   -6.5662    0.0000 H   0  0  0  0  0  0  0  0  0  0  0  0
  1  2  1  0  0  0  0
  1  3  1  0  0  0  0
  1  4  1  0  0  0  0
  1  5  1  0  0  0  0
  5  6  1  0  0  0  0
  5  7  1  0  0  0  0
  5  8  1  0  0  0  0
  8  9  1  0  0  0  0
  8 10  1  0  0  0  0
  8 11  1  0  0  0  0
 11 12  1  0  0  0  0
 11 13  1  0  0  0  0
 11 14  1  0  0  0  0
 14 15  1  0  0  0  0
 14 16  1  0  0  0  0
 14 17  1  0  0  0  0
 17 18  1  0  0  0  0
 18 19  1  0  0  0  0
 18 20  1  0  0  0  0
 18 21  1  0  0  0  0
 21 22  1  0  0  0  0
 21 23  1  0  0  0  0
 21 24  1  0  0  0  0
 24 25  1  0  0  0  0
 24 26  1  0  0  0  0
 24 27  1  0  0  0  0
 27 28  1  0  0  0  0
 27 29  1  0  0  0  0
 27 30  1  0  0  0  0
 30 31  1  0  0  0  0
 30 32  1  0  0  0  0
 30 33  1  0  0  0  0
 17 34  1  0  0  0  0
 34 35  1  0  0  0  0
 34 36  1  0  0  0  0
 34 37  1  0  0  0  0
 37 38  1  0  0  0  0
 37 39  1  0  0  0  0
 37 40  1  0  0  0  0
 40 41  1  0  0  0  0
 40 42  1  0  0  0  0
 40 43  1  0  0  0  0
 43 44  1  0  0  0  0
 43 45  1  0  0  0  0
 43 46  1  0  0  0  0
 46 47  1  0  0  0  0
 46 48  1  0  0  0  0
 46 49  1  0  0  0  0
M  END
> <ChemID>
102800

> <source_casrn>
621-77-2

> <CAS>
621-77-2

> <SMILES>
CCCCCN(CCCCC)CCCCC

> <NAME>
1-Pentanamine, N,N-dipentyl-

> <preferred_name>
Tripentylamine

> <iupac>
C15H33N

> <MPID>
21792

> <dsstox_substance_id>
DTXSID0026177

> <Canonical_QSARr>
CCCCCN(CCCCC)CCCCC

> <InChI_Code_QSARr>
InChI=1S/C15H33N/c1-4-7-10-13-16(14-11-8-5-2)15-12-9-6-3/h4-15H2,1-3H3

> <InChI Key_QSARr>
OOHAUGDGCWURIT-UHFFFAOYSA-N

> <Salt_Solvent>
?

> <BP>
242.5

$$$$
102807
  -INDIGO-08031720192D

 18 18  0  0  0  0  0  0  0  0999 V2000
   -2.7713   -0.0000    0.0000 N   0  0  0  0  0  0  0  0  0  0  0  0
   -1.3857    0.8000    0.0000 C   0  0  0  0  0  0  0  0  0  0  0  0
   -1.3857    2.4000    0.0000 H   0  0  0  0  0  0  0  0  0  0  0  0
    0.0001   -0.0000    0.0000 C   0  0  0  0  0  0  0  0  0  0  0  0
    0.0001   -1.6000    0.0000 C   0  0  0  0  0  0  0  0  0  0  0  0
   -1.3857   -2.4000    0.0000 H   0  0  0  0  0  0  0  0  0  0  0  0
    1.3857   -2.4000    0.0000 C   0  0  0  0  0  0  0  0  0  0  0  0
    1.3857   -4.0000    0.0000 H   0  0  0  0  0  0  0  0  0  0  0  0
    2.7713   -1.6000    0.0000 C   0  0  0  0  0  0  0  0  0  0  0  0
    4.1569   -2.4000    0.0000 H   0  0  0  0  0  0  0  0  0  0  0  0
    2.7713   -0.0000    0.0000 C   0  0  0  0  0  0  0  0  0  0  0  0
    4.1569    0.8000    0.0000 H   0  0  0  0  0  0  0  0  0  0  0  0
    1.3857    0.8000    0.0000 C   0  0  0  0  0  0  0  0  0  0  0  0
    1.3857    2.4000    0.0000 H   0  0  0  0  0  0  0  0  0  0  0  0
   -4.1569    0.8000    0.0000 C   0  0  0  0  0  0  0  0  0  0  0  0
   -5.5426    1.6000    0.0000 H   0  0  0  0  0  0  0  0  0  0  0  0
   -5.5426   -0.0000    0.0000 H   0  0  0  0  0  0  0  0  0  0  0  0
   -4.1569    2.4000    0.0000 H   0  0  0  0  0  0  0  0  0  0  0  0
  1  2  2  0  0  0  0
  2  3  1  0  0  0  0
  2  4  1  0  0  0  0
  4  5  1  0  0  0  0
  5  6  1  0  0  0  0
  5  7  2  0  0  0  0
  7  8  1  0  0  0  0
  7  9  1  0  0  0  0
  9 10  1  0  0  0  0
  9 11  2  0  0  0  0
 11 12  1  0  0  0  0
 11 13  1  0  0  0  0
 13  4  2  0  0  0  0
 13 14  1  0  0  0  0
  1 15  1  0  0  0  0
 15 16  1  0  0  0  0
 15 17  1  0  0  0  0
 15 18  1  0  0  0  0
M  END
> <ChemID>
102807

> <source_casrn>
622-29-7

> <CAS>
622-29-7

> <SMILES>
CN=Cc1ccccc1

> <NAME>
METHANAMINE, N-(PHENYLMETHYLENE)-

> <preferred_name>
Methanamine, N-(phenylmethylene)-

> <iupac>
N-methyl-1-phenylmethanimine

> <MPID>
21797

> <dsstox_substance_id>
DTXSID7060750

> <Canonical_QSARr>
CN=Cc1ccccc1

> <InChI_Code_QSARr>
InChI=1S/C8H9N/c1-9-7-8-5-3-2-4-6-8/h2-7H,1H3/b9-7+

> <InChI Key_QSARr>
HXTGGPKOEKKUQO-VQHVLOKHSA-N

> <Salt_Solvent>
?

> <BP>
185.0

$$$$
102811
  -INDIGO-08031720192D

 22 22  0  0  0  0  0  0  0  0999 V2000
    2.7713   -1.6000    0.0000 O   0  0  0  0  0  0  0  0  0  0  0  0
    4.1569   -2.4000    0.0000 H   0  0  0  0  0  0  0  0  0  0  0  0
    2.7713   -0.0000    0.0000 C   0  0  0  0  0  0  0  0  0  0  0  0
    3.7453    1.2694    0.0000 H   0  0  0  0  0  0  0  0  0  0  0  0
    4.3576    0.2088    0.0000 H   0  0  0  0  0  0  0  0  0  0  0  0
    1.3857    0.8000    0.0000 C   0  0  0  0  0  0  0  0  0  0  0  0
    1.9980    2.2782    0.0000 H   0  0  0  0  0  0  0  0  0  0  0  0
    0.7734    2.2782    0.0000 H   0  0  0  0  0  0  0  0  0  0  0  0
    0.0001   -0.0000    0.0000 N   0  0  0  0  0  0  0  0  0  0  0  0
    0.0001   -1.6000    0.0000 C   0  0  0  0  0  0  0  0  0  0  0  0
    1.5757   -1.3221    0.0000 H   0  0  0  0  0  0  0  0  0  0  0  0
    0.5473   -3.1035    0.0000 H   0  0  0  0  0  0  0  0  0  0  0  0
   -1.3857   -2.4000    0.0000 C   0  0  0  0  0  0  0  0  0  0  0  0
   -0.3572   -3.6257    0.0000 H   0  0  0  0  0  0  0  0  0  0  0  0
   -2.4141   -3.6257    0.0000 H   0  0  0  0  0  0  0  0  0  0  0  0
   -2.7713   -1.6000    0.0000 O   0  0  0  0  0  0  0  0  0  0  0  0
   -2.7713   -0.0000    0.0000 C   0  0  0  0  0  0  0  0  0  0  0  0
   -4.3470   -0.2778    0.0000 H   0  0  0  0  0  0  0  0  0  0  0  0
   -3.3185    1.5035    0.0000 H   0  0  0  0  0  0  0  0  0  0  0  0
   -1.3857    0.8000    0.0000 C   0  0  0  0  0  0  0  0  0  0  0  0
   -2.4141    2.0257    0.0000 H   0  0  0  0  0  0  0  0  0  0  0  0
   -0.3572    2.0257    0.0000 H   0  0  0  0  0  0  0  0  0  0  0  0
  1  2  1  0  0  0  0
  1  3  1  0  0  0  0
  3  4  1  0  0  0  0
  3  5  1  0  0  0  0
  3  6  1  0  0  0  0
  6  7  1  0  0  0  0
  6  8  1  0  0  0  0
  6  9  1  0  0  0  0
  9 10  1  0  0  0  0
 10 11  1  0  0  0  0
 10 12  1  0  0  0  0
 10 13  1  0  0  0  0
 13 14  1  0  0  0  0
 13 15  1  0  0  0  0
 13 16  1  0  0  0  0
 16 17  1  0  0  0  0
 17 18  1  0  0  0  0
 17 19  1  0  0  0  0
 17 20  1  0  0  0  0
 20  9  1  0  0  0  0
 20 21  1  0  0  0  0
 20 22  1  0  0  0  0
M  END
> <ChemID>
102811

> <source_casrn>
622-40-2

> <CAS>
622-40-2

> <SMILES>
OCCN1CCOCC1

> <NAME>
4-Morpholineethanol

> <preferred_name>
4-(2-Hydroxyethyl)morpholine

> <iupac>
2-(morpholin-4-yl)ethanol

> <MPID>
21801

> <dsstox_substance_id>
DTXSID2022090

> <Canonical_QSARr>
OCCN1CCOCC1

> <InChI_Code_QSARr>
InChI=1S/C6H13NO2/c8-4-1-7-2-5-9-6-3-7/h8H,1-6H2

> <InChI Key_QSARr>
KKFDCBRMNNSAAW-UHFFFAOYSA-N

> <Salt_Solvent>
?

> <BP>
227.0

$$$$
102815
  -INDIGO-08031720192D

 23 23  0  0  0  0  0  0  0  0999 V2000
    0.0000    0.0000    0.0000 C   0  0  0  0  0  0  0  0  0  0  0  0
   -0.8000    1.3857    0.0000 C   0  0  0  0  0  0  0  0  0  0  0  0
    0.0000    2.7713    0.0000 H   0  0  0  0  0  0  0  0  0  0  0  0
   -2.4000    1.3857    0.0000 C   0  0  0  0  0  0  0  0  0  0  0  0
   -3.2000    2.7713    0.0000 H   0  0  0  0  0  0  0  0  0  0  0  0
   -3.2000    0.0000    0.0000 C   0  0  0  0  0  0  0  0  0  0  0  0
   -4.8000    0.0000    0.0000 C   0  0  0  0  0  0  0  0  0  0  0  0
   -6.4000    0.0000    0.0000 H   0  0  0  0  0  0  0  0  0  0  0  0
   -5.6000   -1.3857    0.0000 H   0  0  0  0  0  0  0  0  0  0  0  0
   -5.6000    1.3857    0.0000 H   0  0  0  0  0  0  0  0  0  0  0  0
   -2.4000   -1.3857    0.0000 C   0  0  0  0  0  0  0  0  0  0  0  0
   -3.2000   -2.7713    0.0000 H   0  0  0  0  0  0  0  0  0  0  0  0
   -0.8000   -1.3857    0.0000 C   0  0  0  0  0  0  0  0  0  0  0  0
    0.0000   -2.7713    0.0000 H   0  0  0  0  0  0  0  0  0  0  0  0
    1.6000    0.0000    0.0000 N   0  0  0  0  0  0  0  0  0  0  0  0
    2.4000   -1.3857    0.0000 H   0  0  0  0  0  0  0  0  0  0  0  0
    2.4000    1.3857    0.0000 C   0  0  0  0  0  0  0  0  0  0  0  0
    1.1307    2.3596    0.0000 H   0  0  0  0  0  0  0  0  0  0  0  0
    2.1911    2.9720    0.0000 H   0  0  0  0  0  0  0  0  0  0  0  0
    4.0000    1.3857    0.0000 C   0  0  0  0  0  0  0  0  0  0  0  0
    5.6000    1.3857    0.0000 H   0  0  0  0  0  0  0  0  0  0  0  0
    4.8000    2.7713    0.0000 H   0  0  0  0  0  0  0  0  0  0  0  0
    4.8000    0.0000    0.0000 H   0  0  0  0  0  0  0  0  0  0  0  0
  1  2  1  0  0  0  0
  2  3  1  0  0  0  0
  2  4  2  0  0  0  0
  4  5  1  0  0  0  0
  4  6  1  0  0  0  0
  6  7  1  0  0  0  0
  7  8  1  0  0  0  0
  7  9  1  0  0  0  0
  7 10  1  0  0  0  0
  6 11  2  0  0  0  0
 11 12  1  0  0  0  0
 11 13  1  0  0  0  0
 13  1  2  0  0  0  0
 13 14  1  0  0  0  0
  1 15  1  0  0  0  0
 15 16  1  0  0  0  0
 15 17  1  0  0  0  0
 17 18  1  0  0  0  0
 17 19  1  0  0  0  0
 17 20  1  0  0  0  0
 20 21  1  0  0  0  0
 20 22  1  0  0  0  0
 20 23  1  0  0  0  0
M  END
> <ChemID>
102815

> <source_casrn>
622-57-1

> <CAS>
622-57-1

> <SMILES>
Cc1ccc(cc1)NCC

> <NAME>
Benzenamine, N-ethyl-4-methyl-

> <preferred_name>
Benzenamine, N-ethyl-4-methyl-

> <iupac>
N-Ethyl-4-methylaniline

> <MPID>
21805

> <dsstox_substance_id>
DTXSID7060754

> <Canonical_QSARr>
Cc1ccc(cc1)NCC

> <InChI_Code_QSARr>
InChI=1S/C9H13N/c1-3-10-9-6-4-8(2)5-7-9/h4-7,10H,3H2,1-2H3

> <InChI Key_QSARr>
AASABFUMCBTXRL-UHFFFAOYSA-N

> <Salt_Solvent>
?

> <BP>
217.0

$$$$
102819
  -INDIGO-08031720192D

 20 20  0  0  0  0  0  0  0  0999 V2000
    3.2000    0.0000    0.0000 C   0  0  0  0  0  0  0  0  0  0  0  0
    4.8000    0.0000    0.0000 O   0  0  0  0  0  0  0  0  0  0  0  0
    5.6000   -1.3857    0.0000 H   0  0  0  0  0  0  0  0  0  0  0  0
    2.4000    1.3857    0.0000 C   0  0  0  0  0  0  0  0  0  0  0  0
    3.2000    2.7713    0.0000 H   0  0  0  0  0  0  0  0  0  0  0  0
    0.8001    1.3857    0.0000 C   0  0  0  0  0  0  0  0  0  0  0  0
    0.0001    2.7713    0.0000 H   0  0  0  0  0  0  0  0  0  0  0  0
    0.0001    0.0000    0.0000 C   0  0  0  0  0  0  0  0  0  0  0  0
   -1.6001    0.0000    0.0000 O   0  0  0  0  0  0  0  0  0  0  0  0
   -2.4000    1.3857    0.0000 C   0  0  0  0  0  0  0  0  0  0  0  0
   -2.1912    2.9720    0.0000 H   0  0  0  0  0  0  0  0  0  0  0  0
   -1.1306    2.3596    0.0000 H   0  0  0  0  0  0  0  0  0  0  0  0
   -4.0000    1.3857    0.0000 C   0  0  0  0  0  0  0  0  0  0  0  0
   -5.6000    1.3857    0.0000 H   0  0  0  0  0  0  0  0  0  0  0  0
   -4.8000    2.7713    0.0000 H   0  0  0  0  0  0  0  0  0  0  0  0
   -4.8000    0.0000    0.0000 H   0  0  0  0  0  0  0  0  0  0  0  0
    0.8001   -1.3857    0.0000 C   0  0  0  0  0  0  0  0  0  0  0  0
    0.0001   -2.7713    0.0000 H   0  0  0  0  0  0  0  0  0  0  0  0
    2.4000   -1.3857    0.0000 C   0  0  0  0  0  0  0  0  0  0  0  0
    3.2000   -2.7713    0.0000 H   0  0  0  0  0  0  0  0  0  0  0  0
  1  2  1  0  0  0  0
  2  3  1  0  0  0  0
  1  4  1  0  0  0  0
  4  5  1  0  0  0  0
  4  6  2  0  0  0  0
  6  7  1  0  0  0  0
  6  8  1  0  0  0  0
  8  9  1  0  0  0  0
  9 10  1  0  0  0  0
 10 11  1  0  0  0  0
 10 12  1  0  0  0  0
 10 13  1  0  0  0  0
 13 14  1  0  0  0  0
 13 15  1  0  0  0  0
 13 16  1  0  0  0  0
  8 17  2  0  0  0  0
 17 18  1  0  0  0  0
 17 19  1  0  0  0  0
 19  1  2  0  0  0  0
 19 20  1  0  0  0  0
M  END
> <ChemID>
102819

> <source_casrn>
622-62-8

> <CAS>
622-62-8

> <SMILES>
CCOc1ccc(O)cc1

> <NAME>
P-ETHOXYPHENOL

> <preferred_name>
4-Ethoxyphenol

> <iupac>
4-ethoxyphenol

> <MPID>
21809

> <dsstox_substance_id>
DTXSID3044251

> <Canonical_QSARr>
CCOc1ccc(O)cc1

> <InChI_Code_QSARr>
InChI=1S/C8H10O2/c1-2-10-8-5-3-7(9)4-6-8/h3-6,9H,2H2,1H3

> <InChI Key_QSARr>
LKVFCSWBKOVHAH-UHFFFAOYSA-N

> <Salt_Solvent>
?

> <BP>
246.5

$$$$
102823
  -INDIGO-08031720192D

 22 22  0  0  0  0  0  0  0  0999 V2000
   -4.1569   -0.8000    0.0000 C   0  0  0  0  0  0  0  0  0  0  0  0
   -4.1569   -2.4000    0.0000 C   0  0  0  0  0  0  0  0  0  0  0  0
   -2.7712   -3.2000    0.0000 H   0  0  0  0  0  0  0  0  0  0  0  0
   -5.5425   -3.2000    0.0000 C   0  0  0  0  0  0  0  0  0  0  0  0
   -5.5425   -4.8000    0.0000 H   0  0  0  0  0  0  0  0  0  0  0  0
   -6.9282   -2.4000    0.0000 C   0  0  0  0  0  0  0  0  0  0  0  0
   -8.3138   -3.2000    0.0000 H   0  0  0  0  0  0  0  0  0  0  0  0
   -6.9282   -0.8000    0.0000 C   0  0  0  0  0  0  0  0  0  0  0  0
   -8.3138   -0.0000    0.0000 H   0  0  0  0  0  0  0  0  0  0  0  0
   -5.5425   -0.0000    0.0000 C   0  0  0  0  0  0  0  0  0  0  0  0
   -5.5425    1.6000    0.0000 H   0  0  0  0  0  0  0  0  0  0  0  0
   -2.7712   -0.0000    0.0000 O   0  0  0  0  0  0  0  0  0  0  0  0
   -1.3857   -0.8000    0.0000 C   0  0  0  0  0  0  0  0  0  0  0  0
   -1.9979   -2.2782    0.0000 H   0  0  0  0  0  0  0  0  0  0  0  0
   -0.7734   -2.2782    0.0000 H   0  0  0  0  0  0  0  0  0  0  0  0
   -0.0000   -0.0000    0.0000 C   0  0  0  0  0  0  0  0  0  0  0  0
    0.6123    1.4782    0.0000 H   0  0  0  0  0  0  0  0  0  0  0  0
   -0.6124    1.4782    0.0000 H   0  0  0  0  0  0  0  0  0  0  0  0
    1.3856   -0.8000    0.0000 C   0  0  0  0  0  0  0  0  0  0  0  0
    2.7713   -1.6000    0.0000 H   0  0  0  0  0  0  0  0  0  0  0  0
    2.7713   -0.0000    0.0000 H   0  0  0  0  0  0  0  0  0  0  0  0
    1.3856   -2.4000    0.0000 H   0  0  0  0  0  0  0  0  0  0  0  0
  1  2  1  0  0  0  0
  2  3  1  0  0  0  0
  2  4  2  0  0  0  0
  4  5  1  0  0  0  0
  4  6  1  0  0  0  0
  6  7  1  0  0  0  0
  6  8  2  0  0  0  0
  8  9  1  0  0  0  0
  8 10  1  0  0  0  0
 10  1  2  0  0  0  0
 10 11  1  0  0  0  0
  1 12  1  0  0  0  0
 12 13  1  0  0  0  0
 13 14  1  0  0  0  0
 13 15  1  0  0  0  0
 13 16  1  0  0  0  0
 16 17  1  0  0  0  0
 16 18  1  0  0  0  0
 16 19  1  0  0  0  0
 19 20  1  0  0  0  0
 19 21  1  0  0  0  0
 19 22  1  0  0  0  0
M  END
> <ChemID>
102823

> <source_casrn>
622-85-5

> <CAS>
622-85-5

> <SMILES>
CCCOc1ccccc1

> <NAME>
PHENYLPROPYL ETHER

> <preferred_name>
Benzene, propoxy-

> <iupac>
propoxybenzene

> <MPID>
21813

> <dsstox_substance_id>
DTXSID1060760

> <Canonical_QSARr>
CCCOc1ccccc1

> <InChI_Code_QSARr>
InChI=1S/C9H12O/c1-2-8-10-9-6-4-3-5-7-9/h3-7H,2,8H2,1H3

> <InChI Key_QSARr>
DSNYFFJTZPIKFZ-UHFFFAOYSA-N

> <Salt_Solvent>
?

> <BP>
189.9

$$$$
102827
  -INDIGO-08031720192D

 19 19  0  0  0  0  0  0  0  0999 V2000
    5.6000    1.3856    0.0000 C   0  0  0  0  0  0  0  0  0  0  0  0
    7.2000    1.3856    0.0000 H   0  0  0  0  0  0  0  0  0  0  0  0
    4.8001    2.7713    0.0000 H   0  0  0  0  0  0  0  0  0  0  0  0
    4.8001   -0.0000    0.0000 C   0  0  0  0  0  0  0  0  0  0  0  0
    5.6000   -1.3856    0.0000 H   0  0  0  0  0  0  0  0  0  0  0  0
    3.2000   -0.0000    0.0000 C   0  0  0  0  0  0  0  0  0  0  0  0
    2.4000    1.3856    0.0000 C   0  0  0  0  0  0  0  0  0  0  0  0
    3.2000    2.7713    0.0000 H   0  0  0  0  0  0  0  0  0  0  0  0
    0.8000    1.3856    0.0000 C   0  0  0  0  0  0  0  0  0  0  0  0
    0.0001    2.7713    0.0000 H   0  0  0  0  0  0  0  0  0  0  0  0
    0.0001   -0.0000    0.0000 C   0  0  0  0  0  0  0  0  0  0  0  0
   -1.6000   -0.0000    0.0000 C   0  0  0  0  0  0  0  0  0  0  0  0
   -3.2000   -0.0000    0.0000 H   0  0  0  0  0  0  0  0  0  0  0  0
   -2.4000   -1.3856    0.0000 H   0  0  0  0  0  0  0  0  0  0  0  0
   -2.4000    1.3856    0.0000 H   0  0  0  0  0  0  0  0  0  0  0  0
    0.8000   -1.3856    0.0000 C   0  0  0  0  0  0  0  0  0  0  0  0
    0.0001   -2.7713    0.0000 H   0  0  0  0  0  0  0  0  0  0  0  0
    2.4000   -1.3856    0.0000 C   0  0  0  0  0  0  0  0  0  0  0  0
    3.2000   -2.7713    0.0000 H   0  0  0  0  0  0  0  0  0  0  0  0
  1  2  1  0  0  0  0
  1  3  1  0  0  0  0
  1  4  2  0  0  0  0
  4  5  1  0  0  0  0
  4  6  1  0  0  0  0
  6  7  1  0  0  0  0
  7  8  1  0  0  0  0
  7  9  2  0  0  0  0
  9 10  1  0  0  0  0
  9 11  1  0  0  0  0
 11 12  1  0  0  0  0
 12 13  1  0  0  0  0
 12 14  1  0  0  0  0
 12 15  1  0  0  0  0
 11 16  2  0  0  0  0
 16 17  1  0  0  0  0
 16 18  1  0  0  0  0
 18  6  2  0  0  0  0
 18 19  1  0  0  0  0
M  END
> <ChemID>
102827

> <source_casrn>
622-97-9

> <CAS>
622-97-9

> <SMILES>
Cc1ccc(C=C)cc1

> <NAME>
P-METHYLSTYRENE

> <preferred_name>
4-Methylstyrene

> <iupac>
1-ethenyl-4-methylbenzene

> <MPID>
21817

> <dsstox_substance_id>
DTXSID3020889

> <Canonical_QSARr>
Cc1ccc(C=C)cc1

> <InChI_Code_QSARr>
InChI=1S/C9H10/c1-3-9-6-4-8(2)5-7-9/h3-7H,1H2,2H3

> <InChI Key_QSARr>
JLBJTVDPSNHSKJ-UHFFFAOYSA-N

> <Salt_Solvent>
?

> <BP>
172.8

$$$$
102831
  -INDIGO-08031720192D

 17 17  0  0  0  0  0  0  0  0999 V2000
    0.0001   -0.0000    0.0000 C   0  0  0  0  0  0  0  0  0  0  0  0
    0.0001   -1.6000    0.0000 C   0  0  0  0  0  0  0  0  0  0  0  0
    1.3857   -2.4000    0.0000 H   0  0  0  0  0  0  0  0  0  0  0  0
   -1.3857   -2.4000    0.0000 C   0  0  0  0  0  0  0  0  0  0  0  0
   -1.3857   -4.0000    0.0000 H   0  0  0  0  0  0  0  0  0  0  0  0
   -2.7713   -1.6000    0.0000 C   0  0  0  0  0  0  0  0  0  0  0  0
   -4.1569   -2.4000    0.0000 O   0  0  0  0  0  0  0  0  0  0  0  0
   -5.5426   -1.6000    0.0000 H   0  0  0  0  0  0  0  0  0  0  0  0
   -2.7713   -0.0000    0.0000 C   0  0  0  0  0  0  0  0  0  0  0  0
   -4.1569    0.8000    0.0000 H   0  0  0  0  0  0  0  0  0  0  0  0
   -1.3857    0.8000    0.0000 C   0  0  0  0  0  0  0  0  0  0  0  0
   -1.3857    2.4000    0.0000 H   0  0  0  0  0  0  0  0  0  0  0  0
    1.3857    0.8000    0.0000 C   0  0  0  0  0  0  0  0  0  0  0  0
    1.9980    2.2782    0.0000 H   0  0  0  0  0  0  0  0  0  0  0  0
    0.7734    2.2782    0.0000 H   0  0  0  0  0  0  0  0  0  0  0  0
    2.7713   -0.0000    0.0000 O   0  0  0  0  0  0  0  0  0  0  0  0
    4.1569    0.8000    0.0000 H   0  0  0  0  0  0  0  0  0  0  0  0
  1  2  1  0  0  0  0
  2  3  1  0  0  0  0
  2  4  2  0  0  0  0
  4  5  1  0  0  0  0
  4  6  1  0  0  0  0
  6  7  1  0  0  0  0
  7  8  1  0  0  0  0
  6  9  2  0  0  0  0
  9 10  1  0  0  0  0
  9 11  1  0  0  0  0
 11  1  2  0  0  0  0
 11 12  1  0  0  0  0
  1 13  1  0  0  0  0
 13 14  1  0  0  0  0
 13 15  1  0  0  0  0
 13 16  1  0  0  0  0
 16 17  1  0  0  0  0
M  END
> <ChemID>
102831

> <source_casrn>
623-05-2

> <CAS>
623-05-2

> <SMILES>
Oc1ccc(CO)cc1

> <NAME>
P-HYDROXYBENZYL ALCOHOL

> <preferred_name>
4-Hydroxybenzenemethanol

> <iupac>
4-(Hydroxymethyl)phenol

> <MPID>
21821

> <dsstox_substance_id>
DTXSID8073920

> <Canonical_QSARr>
Oc1ccc(CO)cc1

> <InChI_Code_QSARr>
InChI=1S/C7H8O2/c8-5-6-1-3-7(9)4-2-6/h1-4,8-9H,5H2

> <InChI Key_QSARr>
BVJSUAQZOZWCKN-UHFFFAOYSA-N

> <Salt_Solvent>
?

> <BP>
252.0

$$$$
102835
  -INDIGO-08031720192D

 18 18  0  0  0  0  0  0  0  0999 V2000
   -4.3850    1.9523    0.0000 O   0  0  0  0  0  0  0  0  0  0  0  0
   -4.2178    0.3611    0.0000 C   0  0  0  0  0  0  0  0  0  0  0  0
   -2.7560   -0.2897    0.0000 O   0  0  0  0  0  0  0  0  0  0  0  0
   -1.4616    0.6508    0.0000 C   0  0  0  0  0  0  0  0  0  0  0  0
   -2.2251    2.0569    0.0000 H   0  0  0  0  0  0  0  0  0  0  0  0
   -1.0073    2.1849    0.0000 H   0  0  0  0  0  0  0  0  0  0  0  0
    0.0000    0.0000    0.0000 C   0  0  0  0  0  0  0  0  0  0  0  0
    0.3326   -1.5650    0.0000 O   0  0  0  0  0  0  0  0  0  0  0  0
    1.9239   -1.7323    0.0000 C   0  0  0  0  0  0  0  0  0  0  0  0
    2.7239   -3.1179    0.0000 H   0  0  0  0  0  0  0  0  0  0  0  0
    2.5746   -0.2706    0.0000 C   0  0  0  0  0  0  0  0  0  0  0  0
    4.1397    0.0621    0.0000 H   0  0  0  0  0  0  0  0  0  0  0  0
    1.3857    0.8000    0.0000 C   0  0  0  0  0  0  0  0  0  0  0  0
    1.5529    2.3912    0.0000 H   0  0  0  0  0  0  0  0  0  0  0  0
   -5.5122   -0.5793    0.0000 C   0  0  0  0  0  0  0  0  0  0  0  0
   -6.8067   -1.5198    0.0000 H   0  0  0  0  0  0  0  0  0  0  0  0
   -6.9739    0.0714    0.0000 H   0  0  0  0  0  0  0  0  0  0  0  0
   -5.3450   -2.1706    0.0000 H   0  0  0  0  0  0  0  0  0  0  0  0
  1  2  2  0  0  0  0
  2  3  1  0  0  0  0
  3  4  1  0  0  0  0
  4  5  1  0  0  0  0
  4  6  1  0  0  0  0
  4  7  1  0  0  0  0
  7  8  1  0  0  0  0
  8  9  1  0  0  0  0
  9 10  1  0  0  0  0
  9 11  2  0  0  0  0
 11 12  1  0  0  0  0
 11 13  1  0  0  0  0
 13  7  2  0  0  0  0
 13 14  1  0  0  0  0
  2 15  1  0  0  0  0
 15 16  1  0  0  0  0
 15 17  1  0  0  0  0
 15 18  1  0  0  0  0
M  END
> <ChemID>
102835

> <source_casrn>
623-17-6

> <CAS>
623-17-6

> <SMILES>
CC(=O)OCc1ccco1

> <NAME>
2-Furanmethanol, acetate

> <preferred_name>
Furfuryl acetate

> <iupac>
furan-2-ylmethyl acetate

> <MPID>
21825

> <dsstox_substance_id>
DTXSID7025346

> <Canonical_QSARr>
CC(=O)OCc1ccco1

> <InChI_Code_QSARr>
InChI=1S/C7H8O3/c1-6(8)10-5-7-3-2-4-9-7/h2-4H,5H2,1H3

> <InChI Key_QSARr>
CKOYRRWBOKMNRG-UHFFFAOYSA-N

> <Salt_Solvent>
?

> <BP>
179.0

$$$$
102839
  -INDIGO-08031720192D

 16 16  0  0  0  0  0  0  0  0999 V2000
   -0.8000    1.3856    0.0000 C   0  0  0  0  0  0  0  0  0  0  0  0
    0.0001    2.7713    0.0000 H   0  0  0  0  0  0  0  0  0  0  0  0
   -2.4000    1.3856    0.0000 C   0  0  0  0  0  0  0  0  0  0  0  0
   -3.2001    2.7713    0.0000 H   0  0  0  0  0  0  0  0  0  0  0  0
   -3.2001   -0.0000    0.0000 C   0  0  0  0  0  0  0  0  0  0  0  0
   -4.8001    0.0000    0.0000 C   0  0  0  0  0  0  0  0  0  0  0  0
   -5.6000   -1.3856    0.0000 H   0  0  0  0  0  0  0  0  0  0  0  0
   -5.6000    1.3856    0.0000 O   0  0  0  0  0  0  0  0  0  0  0  0
   -2.4000   -1.3856    0.0000 C   0  0  0  0  0  0  0  0  0  0  0  0
   -3.1999   -2.7713    0.0000 H   0  0  0  0  0  0  0  0  0  0  0  0
   -0.8000   -1.3856    0.0000 C   0  0  0  0  0  0  0  0  0  0  0  0
    0.0001   -2.7713    0.0000 H   0  0  0  0  0  0  0  0  0  0  0  0
    0.0001   -0.0000    0.0000 C   0  0  0  0  0  0  0  0  0  0  0  0
    1.6001    0.0000    0.0000 C   0  0  0  0  0  0  0  0  0  0  0  0
    2.4000   -1.3856    0.0000 H   0  0  0  0  0  0  0  0  0  0  0  0
    2.4000    1.3856    0.0000 O   0  0  0  0  0  0  0  0  0  0  0  0
  1  2  1  0  0  0  0
  1  3  1  0  0  0  0
  3  4  1  0  0  0  0
  3  5  2  0  0  0  0
  5  6  1  0  0  0  0
  6  7  1  0  0  0  0
  6  8  2  0  0  0  0
  5  9  1  0  0  0  0
  9 10  1  0  0  0  0
  9 11  2  0  0  0  0
 11 12  1  0  0  0  0
 11 13  1  0  0  0  0
 13  1  2  0  0  0  0
 13 14  1  0  0  0  0
 14 15  1  0  0  0  0
 14 16  2  0  0  0  0
M  END
> <ChemID>
102839

> <source_casrn>
623-27-8

> <CAS>
623-27-8

> <SMILES>
O=Cc1ccc(cc1)C=O

> <NAME>
1,4-Benzenedicarboxaldehyde

> <preferred_name>
1,4-Benzenedicarboxaldehyde

> <iupac>
Terephthalaldehyde

> <MPID>
21829

> <dsstox_substance_id>
DTXSID6060769

> <Canonical_QSARr>
O=Cc1ccc(cc1)C=O

> <InChI_Code_QSARr>
InChI=1S/C8H6O2/c9-5-7-1-2-8(6-10)4-3-7/h1-6H

> <InChI Key_QSARr>
KUCOHFSKRZZVRO-UHFFFAOYSA-N

> <Salt_Solvent>
?

> <BP>
246.0

$$$$
102843
  -INDIGO-08031720192D

 17 16  0  0  0  0  0  0  0  0999 V2000
    4.1569    0.8000    0.0000 C   0  0  0  0  0  0  0  0  0  0  0  0
    5.5426    1.6000    0.0000 H   0  0  0  0  0  0  0  0  0  0  0  0
    5.5426   -0.0000    0.0000 H   0  0  0  0  0  0  0  0  0  0  0  0
    4.1569    2.4000    0.0000 H   0  0  0  0  0  0  0  0  0  0  0  0
    2.7713   -0.0000    0.0000 O   0  0  0  0  0  0  0  0  0  0  0  0
    1.3857    0.8000    0.0000 C   0  0  0  0  0  0  0  0  0  0  0  0
    0.7734    2.2782    0.0000 H   0  0  0  0  0  0  0  0  0  0  0  0
    1.9980    2.2782    0.0000 H   0  0  0  0  0  0  0  0  0  0  0  0
   -0.0001   -0.0000    0.0000 C   0  0  0  0  0  0  0  0  0  0  0  0
    0.8000   -1.3856    0.0000 H   0  0  0  0  0  0  0  0  0  0  0  0
   -1.3857   -0.8000    0.0000 C   0  0  0  0  0  0  0  0  0  0  0  0
   -0.7734   -2.2782    0.0000 H   0  0  0  0  0  0  0  0  0  0  0  0
   -1.9980   -2.2782    0.0000 H   0  0  0  0  0  0  0  0  0  0  0  0
   -2.7713   -0.0000    0.0000 O   0  0  0  0  0  0  0  0  0  0  0  0
   -4.1569   -0.8000    0.0000 H   0  0  0  0  0  0  0  0  0  0  0  0
   -0.8000    1.3856    0.0000 O   0  0  0  0  0  0  0  0  0  0  0  0
   -2.4000    1.3856    0.0000 H   0  0  0  0  0  0  0  0  0  0  0  0
  1  2  1  0  0  0  0
  1  3  1  0  0  0  0
  1  4  1  0  0  0  0
  1  5  1  0  0  0  0
  5  6  1  0  0  0  0
  6  7  1  0  0  0  0
  6  8  1  0  0  0  0
  6  9  1  0  0  0  0
  9 10  1  0  0  0  0
  9 11  1  0  0  0  0
 11 12  1  0  0  0  0
 11 13  1  0  0  0  0
 11 14  1  0  0  0  0
 14 15  1  0  0  0  0
  9 16  1  0  0  0  0
 16 17  1  0  0  0  0
M  END
> <ChemID>
102843

> <source_casrn>
623-39-2

> <CAS>
623-39-2

> <SMILES>
COCC(O)CO

> <NAME>
1,2-Propanediol, 3-methoxy-

> <preferred_name>
1-O-Methylglycerol

> <iupac>
3-methoxypropane-1,2-diol

> <MPID>
21833

> <dsstox_substance_id>
DTXSID3049336

> <Canonical_QSARr>
COCC(O)CO

> <InChI_Code_QSARr>
InChI=1S/C4H10O3/c1-7-3-4(6)2-5/h4-6H,2-3H2,1H3

> <InChI Key_QSARr>
PSJBSUHYCGQTHZ-UHFFFAOYSA-N

> <Salt_Solvent>
?

> <BP>
220.0

$$$$
102847
  -INDIGO-08031720192D

 15 14  0  0  0  0  0  0  0  0999 V2000
    0.0000    0.0000    0.0000 C   0  0  0  0  0  0  0  0  0  0  0  0
    0.6122   -1.4782    0.0000 H   0  0  0  0  0  0  0  0  0  0  0  0
    1.3856    0.8000    0.0000 C   0  0  0  0  0  0  0  0  0  0  0  0
    2.7713    1.6000    0.0000 H   0  0  0  0  0  0  0  0  0  0  0  0
    2.7713    0.0000    0.0000 H   0  0  0  0  0  0  0  0  0  0  0  0
    1.3856    2.4000    0.0000 Cl  0  0  0  0  0  0  0  0  0  0  0  0
   -0.6122   -1.4782    0.0000 Cl  0  0  0  0  0  0  0  0  0  0  0  0
   -1.3857    0.8000    0.0000 O   0  0  0  0  0  0  0  0  0  0  0  0
   -2.7713    0.0000    0.0000 C   0  0  0  0  0  0  0  0  0  0  0  0
   -2.1590   -1.4782    0.0000 H   0  0  0  0  0  0  0  0  0  0  0  0
   -3.3835   -1.4782    0.0000 H   0  0  0  0  0  0  0  0  0  0  0  0
   -4.1569    0.8000    0.0000 C   0  0  0  0  0  0  0  0  0  0  0  0
   -5.5426    1.6000    0.0000 H   0  0  0  0  0  0  0  0  0  0  0  0
   -5.5426    0.0000    0.0000 H   0  0  0  0  0  0  0  0  0  0  0  0
   -4.1569    2.4000    0.0000 H   0  0  0  0  0  0  0  0  0  0  0  0
  1  2  1  0  0  0  0
  1  3  1  0  0  0  0
  3  4  1  0  0  0  0
  3  5  1  0  0  0  0
  3  6  1  0  0  0  0
  1  7  1  0  0  0  0
  1  8  1  0  0  0  0
  8  9  1  0  0  0  0
  9 10  1  0  0  0  0
  9 11  1  0  0  0  0
  9 12  1  0  0  0  0
 12 13  1  0  0  0  0
 12 14  1  0  0  0  0
 12 15  1  0  0  0  0
M  END
> <ChemID>
102847

> <source_casrn>
623-46-1

> <CAS>
NOCAS_870709

> <SMILES>
CCOC(Cl)CCl

> <NAME>
Ethane, 1,2-dichloro-1-ethoxy-

> <preferred_name>


> <iupac>


> <MPID>
21837

> <dsstox_substance_id>
DTXSID40870709

> <Canonical_QSARr>
CCOC(Cl)CCl

> <InChI_Code_QSARr>
InChI=1S/C4H8Cl2O/c1-2-7-4(6)3-5/h4H,2-3H2,1H3

> <InChI Key_QSARr>
NNBUKAPOVBEMNI-UHFFFAOYSA-N

> <Salt_Solvent>
?

> <BP>
145.0

$$$$
102851
  -INDIGO-08031720192D

 15 14  0  0  0  0  0  0  0  0999 V2000
   -2.7713    0.0000    0.0000 C   0  0  0  0  0  0  0  0  0  0  0  0
   -1.3856    0.8000    0.0000 O   0  0  0  0  0  0  0  0  0  0  0  0
    0.0000    0.0000    0.0000 C   0  0  0  0  0  0  0  0  0  0  0  0
    0.6123   -1.4782    0.0000 H   0  0  0  0  0  0  0  0  0  0  0  0
   -0.6123   -1.4782    0.0000 H   0  0  0  0  0  0  0  0  0  0  0  0
    1.3857    0.8000    0.0000 C   0  0  0  0  0  0  0  0  0  0  0  0
    2.7713    1.6000    0.0000 H   0  0  0  0  0  0  0  0  0  0  0  0
    2.7713    0.0000    0.0000 H   0  0  0  0  0  0  0  0  0  0  0  0
    1.3857    2.4000    0.0000 H   0  0  0  0  0  0  0  0  0  0  0  0
   -4.1570    0.8000    0.0000 C   0  0  0  0  0  0  0  0  0  0  0  0
   -4.7693    2.2782    0.0000 H   0  0  0  0  0  0  0  0  0  0  0  0
   -3.5447    2.2782    0.0000 H   0  0  0  0  0  0  0  0  0  0  0  0
   -5.5426    0.0000    0.0000 O   0  0  0  0  0  0  0  0  0  0  0  0
   -6.9282    0.8000    0.0000 H   0  0  0  0  0  0  0  0  0  0  0  0
   -2.7713   -1.6000    0.0000 O   0  0  0  0  0  0  0  0  0  0  0  0
  1  2  1  0  0  0  0
  2  3  1  0  0  0  0
  3  4  1  0  0  0  0
  3  5  1  0  0  0  0
  3  6  1  0  0  0  0
  6  7  1  0  0  0  0
  6  8  1  0  0  0  0
  6  9  1  0  0  0  0
  1 10  1  0  0  0  0
 10 11  1  0  0  0  0
 10 12  1  0  0  0  0
 10 13  1  0  0  0  0
 13 14  1  0  0  0  0
  1 15  2  0  0  0  0
M  END
> <ChemID>
102851

> <source_casrn>
623-50-7

> <CAS>
623-50-7

> <SMILES>
CCOC(=O)CO

> <NAME>
Acetic acid, hydroxy-, ethyl ester

> <preferred_name>
Acetic acid, hydroxy-, ethyl ester

> <iupac>
ethyl 2-hydroxyacetate

> <MPID>
21841

> <dsstox_substance_id>
DTXSID5060772

> <Canonical_QSARr>
CCOC(=O)CO

> <InChI_Code_QSARr>
InChI=1S/C4H8O3/c1-2-7-4(6)3-5/h5H,2-3H2,1H3

> <InChI Key_QSARr>
ZANNOFHADGWOLI-UHFFFAOYSA-N

> <Salt_Solvent>
?

> <BP>
160.0

$$$$
102855
  -INDIGO-08031720192D

 21 20  0  0  0  0  0  0  0  0999 V2000
    5.5426    0.0000    0.0000 C   0  0  0  0  0  0  0  0  0  0  0  0
    6.9283    0.8000    0.0000 C   0  0  0  0  0  0  0  0  0  0  0  0
    6.9283    2.4000    0.0000 H   0  0  0  0  0  0  0  0  0  0  0  0
    8.3138    0.0000    0.0000 C   0  0  0  0  0  0  0  0  0  0  0  0
    8.3138   -1.6000    0.0000 H   0  0  0  0  0  0  0  0  0  0  0  0
    9.6996    0.8000    0.0000 C   0  0  0  0  0  0  0  0  0  0  0  0
   11.0851    1.6000    0.0000 H   0  0  0  0  0  0  0  0  0  0  0  0
   11.0851    0.0000    0.0000 H   0  0  0  0  0  0  0  0  0  0  0  0
    9.6996    2.4000    0.0000 H   0  0  0  0  0  0  0  0  0  0  0  0
    4.1570    0.8000    0.0000 O   0  0  0  0  0  0  0  0  0  0  0  0
    2.7713    0.0000    0.0000 C   0  0  0  0  0  0  0  0  0  0  0  0
    1.3857    0.8000    0.0000 C   0  0  0  0  0  0  0  0  0  0  0  0
    1.3857    2.4000    0.0000 H   0  0  0  0  0  0  0  0  0  0  0  0
    0.0000    0.0000    0.0000 C   0  0  0  0  0  0  0  0  0  0  0  0
    0.0000   -1.6000    0.0000 H   0  0  0  0  0  0  0  0  0  0  0  0
   -1.3855    0.8000    0.0000 C   0  0  0  0  0  0  0  0  0  0  0  0
   -2.7713    1.6000    0.0000 H   0  0  0  0  0  0  0  0  0  0  0  0
   -2.7713    0.0000    0.0000 H   0  0  0  0  0  0  0  0  0  0  0  0
   -1.3855    2.4000    0.0000 H   0  0  0  0  0  0  0  0  0  0  0  0
    2.7713   -1.6000    0.0000 O   0  0  0  0  0  0  0  0  0  0  0  0
    5.5426   -1.6000    0.0000 O   0  0  0  0  0  0  0  0  0  0  0  0
  1  2  1  0  0  0  0
  2  3  1  0  0  0  0
  2  4  2  0  0  0  0
  4  5  1  0  0  0  0
  4  6  1  0  0  0  0
  6  7  1  0  0  0  0
  6  8  1  0  0  0  0
  6  9  1  0  0  0  0
  1 10  1  0  0  0  0
 10 11  1  0  0  0  0
 11 12  1  0  0  0  0
 12 13  1  0  0  0  0
 12 14  2  0  0  0  0
 14 15  1  0  0  0  0
 14 16  1  0  0  0  0
 16 17  1  0  0  0  0
 16 18  1  0  0  0  0
 16 19  1  0  0  0  0
 11 20  2  0  0  0  0
  1 21  2  0  0  0  0
M  END
> <ChemID>
102855

> <source_casrn>
623-68-7

> <CAS>
NOCAS_870711

> <SMILES>
CC=CC(=O)OC(=O)C=CC

> <NAME>
2-Butenoic acid, anhydride

> <preferred_name>


> <iupac>


> <MPID>
21845

> <dsstox_substance_id>
DTXSID10870711

> <Canonical_QSARr>
CC=CC(=O)OC(=O)C=CC

> <InChI_Code_QSARr>
InChI=1S/C8H10O3/c1-3-5-7(9)11-8(10)6-4-2/h3-6H,1-2H3/b5-3+,6-4+

> <InChI Key_QSARr>
VJDDQSBNUHLBTD-GGWOSOGESA-N

> <Salt_Solvent>
?

> <BP>
247.0

$$$$
102859
  -INDIGO-08031720192D

 20 19  0  0  0  0  0  0  0  0999 V2000
    2.7714   -1.6000    0.0000 O   0  0  0  0  0  0  0  0  0  0  0  0
    2.7714    0.0000    0.0000 C   0  0  0  0  0  0  0  0  0  0  0  0
    4.1569    0.8000    0.0000 N   0  0  0  0  0  0  0  0  0  0  0  0
    4.1569    2.4000    0.0000 H   0  0  0  0  0  0  0  0  0  0  0  0
    5.5425    0.0000    0.0000 C   0  0  0  0  0  0  0  0  0  0  0  0
    6.1548   -1.4782    0.0000 H   0  0  0  0  0  0  0  0  0  0  0  0
    4.9302   -1.4782    0.0000 H   0  0  0  0  0  0  0  0  0  0  0  0
    6.9282    0.8000    0.0000 C   0  0  0  0  0  0  0  0  0  0  0  0
    8.3138    1.6000    0.0000 H   0  0  0  0  0  0  0  0  0  0  0  0
    8.3138    0.0000    0.0000 H   0  0  0  0  0  0  0  0  0  0  0  0
    6.9282    2.4000    0.0000 H   0  0  0  0  0  0  0  0  0  0  0  0
    1.3857    0.8000    0.0000 N   0  0  0  0  0  0  0  0  0  0  0  0
    1.3857    2.4000    0.0000 H   0  0  0  0  0  0  0  0  0  0  0  0
    0.0000    0.0000    0.0000 C   0  0  0  0  0  0  0  0  0  0  0  0
    0.6124   -1.4782    0.0000 H   0  0  0  0  0  0  0  0  0  0  0  0
   -0.6123   -1.4782    0.0000 H   0  0  0  0  0  0  0  0  0  0  0  0
   -1.3856    0.8000    0.0000 C   0  0  0  0  0  0  0  0  0  0  0  0
   -2.7713    1.6000    0.0000 H   0  0  0  0  0  0  0  0  0  0  0  0
   -2.7713    0.0000    0.0000 H   0  0  0  0  0  0  0  0  0  0  0  0
   -1.3856    2.4000    0.0000 H   0  0  0  0  0  0  0  0  0  0  0  0
  1  2  2  0  0  0  0
  2  3  1  0  0  0  0
  3  4  1  0  0  0  0
  3  5  1  0  0  0  0
  5  6  1  0  0  0  0
  5  7  1  0  0  0  0
  5  8  1  0  0  0  0
  8  9  1  0  0  0  0
  8 10  1  0  0  0  0
  8 11  1  0  0  0  0
  2 12  1  0  0  0  0
 12 13  1  0  0  0  0
 12 14  1  0  0  0  0
 14 15  1  0  0  0  0
 14 16  1  0  0  0  0
 14 17  1  0  0  0  0
 17 18  1  0  0  0  0
 17 19  1  0  0  0  0
 17 20  1  0  0  0  0
M  END
> <ChemID>
102859

> <source_casrn>
623-76-7

> <CAS>
623-76-7

> <SMILES>
CCNC(=O)NCC

> <NAME>
UREA, N,N'-DIETHYL-

> <preferred_name>
Urea, N,N'-diethyl (9CI)

> <iupac>
1,3-Diethylurea

> <MPID>
21849

> <dsstox_substance_id>
DTXSID90211365

> <Canonical_QSARr>
CCNC(=O)NCC

> <InChI_Code_QSARr>
InChI=1S/C5H12N2O/c1-3-6-5(8)7-4-2/h3-4H2,1-2H3,(H2,6,7,8)

> <InChI Key_QSARr>
ZWAVGZYKJNOTPX-UHFFFAOYSA-N

> <Salt_Solvent>
?

> <BP>
263.0

$$$$
102863
  -INDIGO-08031720192D

 23 22  0  0  0  0  0  0  0  0999 V2000
   -0.0001   -0.0000    0.0000 C   0  0  0  0  0  0  0  0  0  0  0  0
    1.3856    0.8000    0.0000 H   0  0  0  0  0  0  0  0  0  0  0  0
    0.8000   -1.3857    0.0000 C   0  0  0  0  0  0  0  0  0  0  0  0
   -0.4693   -2.3596    0.0000 H   0  0  0  0  0  0  0  0  0  0  0  0
    0.5912   -2.9720    0.0000 H   0  0  0  0  0  0  0  0  0  0  0  0
    2.4000   -1.3857    0.0000 O   0  0  0  0  0  0  0  0  0  0  0  0
    3.2001   -2.7713    0.0000 C   0  0  0  0  0  0  0  0  0  0  0  0
    2.4000   -4.1569    0.0000 O   0  0  0  0  0  0  0  0  0  0  0  0
    4.7999   -2.7713    0.0000 C   0  0  0  0  0  0  0  0  0  0  0  0
    6.4000   -2.7713    0.0000 H   0  0  0  0  0  0  0  0  0  0  0  0
    5.6000   -4.1569    0.0000 H   0  0  0  0  0  0  0  0  0  0  0  0
    5.6000   -1.3857    0.0000 H   0  0  0  0  0  0  0  0  0  0  0  0
   -1.3856   -0.8000    0.0000 O   0  0  0  0  0  0  0  0  0  0  0  0
   -1.6635   -2.3757    0.0000 C   0  0  0  0  0  0  0  0  0  0  0  0
   -3.1671   -2.9229    0.0000 C   0  0  0  0  0  0  0  0  0  0  0  0
   -4.6705   -3.4702    0.0000 H   0  0  0  0  0  0  0  0  0  0  0  0
   -3.4448   -4.4986    0.0000 H   0  0  0  0  0  0  0  0  0  0  0  0
   -4.3926   -1.8945    0.0000 H   0  0  0  0  0  0  0  0  0  0  0  0
   -0.4377   -3.4042    0.0000 O   0  0  0  0  0  0  0  0  0  0  0  0
   -0.7999    1.3856    0.0000 C   0  0  0  0  0  0  0  0  0  0  0  0
   -1.5999    2.7713    0.0000 H   0  0  0  0  0  0  0  0  0  0  0  0
   -0.0001    2.7713    0.0000 H   0  0  0  0  0  0  0  0  0  0  0  0
   -2.4000    1.3856    0.0000 H   0  0  0  0  0  0  0  0  0  0  0  0
  1  2  1  0  0  0  0
  1  3  1  0  0  0  0
  3  4  1  0  0  0  0
  3  5  1  0  0  0  0
  3  6  1  0  0  0  0
  6  7  1  0  0  0  0
  7  8  2  0  0  0  0
  7  9  1  0  0  0  0
  9 10  1  0  0  0  0
  9 11  1  0  0  0  0
  9 12  1  0  0  0  0
  1 13  1  0  0  0  0
 13 14  1  0  0  0  0
 14 15  1  0  0  0  0
 15 16  1  0  0  0  0
 15 17  1  0  0  0  0
 15 18  1  0  0  0  0
 14 19  2  0  0  0  0
  1 20  1  0  0  0  0
 20 21  1  0  0  0  0
 20 22  1  0  0  0  0
 20 23  1  0  0  0  0
M  END
> <ChemID>
102863

> <source_casrn>
623-84-7

> <CAS>
623-84-7

> <SMILES>
CC(=O)OCC(C)OC(C)=O

> <NAME>
1,2-PROPYLENE GLYCOL DIACETATE

> <preferred_name>
Propane-1,2-diyl diacetate

> <iupac>
propane-1,2-diyl diacetate

> <MPID>
21853

> <dsstox_substance_id>
DTXSID9044827

> <Canonical_QSARr>
CC(=O)OCC(C)OC(C)=O

> <InChI_Code_QSARr>
InChI=1S/C7H12O4/c1-5(11-7(3)9)4-10-6(2)8/h5H,4H2,1-3H3

> <InChI Key_QSARr>
MLHOXUWWKVQEJB-UHFFFAOYSA-N

> <Salt_Solvent>
?

> <BP>
190.5

$$$$
102868
  -INDIGO-08031720192D

 24 23  0  0  0  0  0  0  0  0999 V2000
    4.1568    2.4000    0.0000 O   0  0  0  0  0  0  0  0  0  0  0  0
    4.1568    0.8000    0.0000 C   0  0  0  0  0  0  0  0  0  0  0  0
    5.5426    0.0000    0.0000 O   0  0  0  0  0  0  0  0  0  0  0  0
    6.9283    0.8000    0.0000 C   0  0  0  0  0  0  0  0  0  0  0  0
    6.3160    2.2782    0.0000 H   0  0  0  0  0  0  0  0  0  0  0  0
    7.5404    2.2782    0.0000 H   0  0  0  0  0  0  0  0  0  0  0  0
    8.3138    0.0000    0.0000 C   0  0  0  0  0  0  0  0  0  0  0  0
    8.9262   -1.4782    0.0000 H   0  0  0  0  0  0  0  0  0  0  0  0
    7.7015   -1.4782    0.0000 H   0  0  0  0  0  0  0  0  0  0  0  0
    9.6996    0.8000    0.0000 C   0  0  0  0  0  0  0  0  0  0  0  0
   11.0851    1.6000    0.0000 H   0  0  0  0  0  0  0  0  0  0  0  0
   11.0851    0.0000    0.0000 H   0  0  0  0  0  0  0  0  0  0  0  0
    9.6996    2.4000    0.0000 H   0  0  0  0  0  0  0  0  0  0  0  0
    2.7713    0.0000    0.0000 O   0  0  0  0  0  0  0  0  0  0  0  0
    1.3857    0.8000    0.0000 C   0  0  0  0  0  0  0  0  0  0  0  0
    0.7734    2.2782    0.0000 H   0  0  0  0  0  0  0  0  0  0  0  0
    1.9979    2.2782    0.0000 H   0  0  0  0  0  0  0  0  0  0  0  0
    0.0000    0.0000    0.0000 C   0  0  0  0  0  0  0  0  0  0  0  0
    0.6123   -1.4782    0.0000 H   0  0  0  0  0  0  0  0  0  0  0  0
   -0.6123   -1.4782    0.0000 H   0  0  0  0  0  0  0  0  0  0  0  0
   -1.3855    0.8000    0.0000 C   0  0  0  0  0  0  0  0  0  0  0  0
   -2.7713    1.6000    0.0000 H   0  0  0  0  0  0  0  0  0  0  0  0
   -2.7713    0.0000    0.0000 H   0  0  0  0  0  0  0  0  0  0  0  0
   -1.3855    2.4000    0.0000 H   0  0  0  0  0  0  0  0  0  0  0  0
  1  2  2  0  0  0  0
  2  3  1  0  0  0  0
  3  4  1  0  0  0  0
  4  5  1  0  0  0  0
  4  6  1  0  0  0  0
  4  7  1  0  0  0  0
  7  8  1  0  0  0  0
  7  9  1  0  0  0  0
  7 10  1  0  0  0  0
 10 11  1  0  0  0  0
 10 12  1  0  0  0  0
 10 13  1  0  0  0  0
  2 14  1  0  0  0  0
 14 15  1  0  0  0  0
 15 16  1  0  0  0  0
 15 17  1  0  0  0  0
 15 18  1  0  0  0  0
 18 19  1  0  0  0  0
 18 20  1  0  0  0  0
 18 21  1  0  0  0  0
 21 22  1  0  0  0  0
 21 23  1  0  0  0  0
 21 24  1  0  0  0  0
M  END
> <ChemID>
102868

> <source_casrn>
623-96-1

> <CAS>
623-96-1

> <SMILES>
CCCOC(=O)OCCC

> <NAME>
Carbonic acid, dipropyl ester

> <preferred_name>
Carbonic acid, dipropyl ester

> <iupac>
Dipropyl carbonate

> <MPID>
21858

> <dsstox_substance_id>
DTXSID5060778

> <Canonical_QSARr>
CCCOC(=O)OCCC

> <InChI_Code_QSARr>
InChI=1S/C7H14O3/c1-3-5-9-7(8)10-6-4-2/h3-6H2,1-2H3

> <InChI Key_QSARr>
VUPKGFBOKBGHFZ-UHFFFAOYSA-N

> <Salt_Solvent>
?

> <BP>
168.0

$$$$
102873
  -INDIGO-08031720192D

 41 40  0  0  0  0  0  0  0  0999 V2000
   -5.5425    0.0000    0.0000 C   0  0  0  0  0  0  0  0  0  0  0  0
   -4.1568    0.8000    0.0000 C   0  0  0  0  0  0  0  0  0  0  0  0
   -3.5445    2.2782    0.0000 H   0  0  0  0  0  0  0  0  0  0  0  0
   -4.7691    2.2782    0.0000 H   0  0  0  0  0  0  0  0  0  0  0  0
   -2.7712    0.0000    0.0000 C   0  0  0  0  0  0  0  0  0  0  0  0
   -3.3835   -1.4782    0.0000 H   0  0  0  0  0  0  0  0  0  0  0  0
   -2.1588   -1.4782    0.0000 H   0  0  0  0  0  0  0  0  0  0  0  0
   -1.3855    0.8000    0.0000 C   0  0  0  0  0  0  0  0  0  0  0  0
   -0.7735    2.2782    0.0000 H   0  0  0  0  0  0  0  0  0  0  0  0
   -1.9978    2.2782    0.0000 H   0  0  0  0  0  0  0  0  0  0  0  0
    0.0002    0.0000    0.0000 C   0  0  0  0  0  0  0  0  0  0  0  0
   -0.6121   -1.4782    0.0000 H   0  0  0  0  0  0  0  0  0  0  0  0
    0.6121   -1.4782    0.0000 H   0  0  0  0  0  0  0  0  0  0  0  0
    1.3855    0.8000    0.0000 C   0  0  0  0  0  0  0  0  0  0  0  0
    1.9978    2.2782    0.0000 H   0  0  0  0  0  0  0  0  0  0  0  0
    0.7735    2.2782    0.0000 H   0  0  0  0  0  0  0  0  0  0  0  0
    2.7712    0.0000    0.0000 C   0  0  0  0  0  0  0  0  0  0  0  0
    2.1588   -1.4782    0.0000 H   0  0  0  0  0  0  0  0  0  0  0  0
    3.3835   -1.4782    0.0000 H   0  0  0  0  0  0  0  0  0  0  0  0
    4.1568    0.8000    0.0000 C   0  0  0  0  0  0  0  0  0  0  0  0
    4.7691    2.2782    0.0000 H   0  0  0  0  0  0  0  0  0  0  0  0
    3.5445    2.2782    0.0000 H   0  0  0  0  0  0  0  0  0  0  0  0
    5.5425    0.0000    0.0000 C   0  0  0  0  0  0  0  0  0  0  0  0
    6.9281    0.8000    0.0000 O   0  0  0  0  0  0  0  0  0  0  0  0
    8.3138    0.0000    0.0000 C   0  0  0  0  0  0  0  0  0  0  0  0
    7.7015   -1.4782    0.0000 H   0  0  0  0  0  0  0  0  0  0  0  0
    8.9261   -1.4782    0.0000 H   0  0  0  0  0  0  0  0  0  0  0  0
    9.6995    0.8000    0.0000 C   0  0  0  0  0  0  0  0  0  0  0  0
   11.0851    1.6000    0.0000 H   0  0  0  0  0  0  0  0  0  0  0  0
   11.0851    0.0000    0.0000 H   0  0  0  0  0  0  0  0  0  0  0  0
    9.6995    2.4000    0.0000 H   0  0  0  0  0  0  0  0  0  0  0  0
    5.5425   -1.6000    0.0000 O   0  0  0  0  0  0  0  0  0  0  0  0
   -6.9281    0.8000    0.0000 O   0  0  0  0  0  0  0  0  0  0  0  0
   -8.3138    0.0000    0.0000 C   0  0  0  0  0  0  0  0  0  0  0  0
   -8.9261   -1.4782    0.0000 H   0  0  0  0  0  0  0  0  0  0  0  0
   -7.7015   -1.4782    0.0000 H   0  0  0  0  0  0  0  0  0  0  0  0
   -9.6995    0.8000    0.0000 C   0  0  0  0  0  0  0  0  0  0  0  0
  -11.0851    1.6000    0.0000 H   0  0  0  0  0  0  0  0  0  0  0  0
  -11.0851    0.0000    0.0000 H   0  0  0  0  0  0  0  0  0  0  0  0
   -9.6995    2.4000    0.0000 H   0  0  0  0  0  0  0  0  0  0  0  0
   -5.5425   -1.6000    0.0000 O   0  0  0  0  0  0  0  0  0  0  0  0
  1  2  1  0  0  0  0
  2  3  1  0  0  0  0
  2  4  1  0  0  0  0
  2  5  1  0  0  0  0
  5  6  1  0  0  0  0
  5  7  1  0  0  0  0
  5  8  1  0  0  0  0
  8  9  1  0  0  0  0
  8 10  1  0  0  0  0
  8 11  1  0  0  0  0
 11 12  1  0  0  0  0
 11 13  1  0  0  0  0
 11 14  1  0  0  0  0
 14 15  1  0  0  0  0
 14 16  1  0  0  0  0
 14 17  1  0  0  0  0
 17 18  1  0  0  0  0
 17 19  1  0  0  0  0
 17 20  1  0  0  0  0
 20 21  1  0  0  0  0
 20 22  1  0  0  0  0
 20 23  1  0  0  0  0
 23 24  1  0  0  0  0
 24 25  1  0  0  0  0
 25 26  1  0  0  0  0
 25 27  1  0  0  0  0
 25 28  1  0  0  0  0
 28 29  1  0  0  0  0
 28 30  1  0  0  0  0
 28 31  1  0  0  0  0
 23 32  2  0  0  0  0
  1 33  1  0  0  0  0
 33 34  1  0  0  0  0
 34 35  1  0  0  0  0
 34 36  1  0  0  0  0
 34 37  1  0  0  0  0
 37 38  1  0  0  0  0
 37 39  1  0  0  0  0
 37 40  1  0  0  0  0
  1 41  2  0  0  0  0
M  END
> <ChemID>
102873

> <source_casrn>
624-17-9

> <CAS>
624-17-9

> <SMILES>
CCOC(=O)CCCCCCCC(=O)OCC

> <NAME>
DIETHYL AZELATE

> <preferred_name>
Nonanedioic acid, diethyl ester

> <iupac>
Diethyl nonanedioate

> <MPID>
21862

> <dsstox_substance_id>
DTXSID4060783

> <Canonical_QSARr>
CCOC(=O)CCCCCCCC(=O)OCC

> <InChI_Code_QSARr>
InChI=1S/C13H24O4/c1-3-16-12(14)10-8-6-5-7-9-11-13(15)17-4-2/h3-11H2,1-2H3

> <InChI Key_QSARr>
CQMYCPZZIPXILQ-UHFFFAOYSA-N

> <Salt_Solvent>
?

> <BP>
291.5

$$$$
102878
  -INDIGO-08031720192D

 23 22  0  0  0  0  0  0  0  0999 V2000
    1.3857   -0.8000    0.0000 C   0  0  0  0  0  0  0  0  0  0  0  0
    1.9979   -2.2782    0.0000 H   0  0  0  0  0  0  0  0  0  0  0  0
    0.7734   -2.2782    0.0000 H   0  0  0  0  0  0  0  0  0  0  0  0
    0.0001    0.0000    0.0000 C   0  0  0  0  0  0  0  0  0  0  0  0
   -0.8000   -1.3856    0.0000 H   0  0  0  0  0  0  0  0  0  0  0  0
   -1.5036    0.5472    0.0000 C   0  0  0  0  0  0  0  0  0  0  0  0
   -1.1572    2.1093    0.0000 H   0  0  0  0  0  0  0  0  0  0  0  0
   -2.3633    1.8967    0.0000 H   0  0  0  0  0  0  0  0  0  0  0  0
   -2.7292   -0.4813    0.0000 C   0  0  0  0  0  0  0  0  0  0  0  0
   -3.9549   -1.5097    0.0000 H   0  0  0  0  0  0  0  0  0  0  0  0
   -4.2327    0.0660    0.0000 H   0  0  0  0  0  0  0  0  0  0  0  0
   -2.4513   -2.0569    0.0000 H   0  0  0  0  0  0  0  0  0  0  0  0
    0.8000    1.3856    0.0000 C   0  0  0  0  0  0  0  0  0  0  0  0
    1.6001    2.7713    0.0000 H   0  0  0  0  0  0  0  0  0  0  0  0
    2.4000    1.3856    0.0000 H   0  0  0  0  0  0  0  0  0  0  0  0
    0.0001    2.7713    0.0000 H   0  0  0  0  0  0  0  0  0  0  0  0
    2.7712    0.0000    0.0000 O   0  0  0  0  0  0  0  0  0  0  0  0
    4.1568   -0.8000    0.0000 C   0  0  0  0  0  0  0  0  0  0  0  0
    4.1568   -2.4000    0.0000 O   0  0  0  0  0  0  0  0  0  0  0  0
    5.5426    0.0000    0.0000 C   0  0  0  0  0  0  0  0  0  0  0  0
    6.9282    0.8000    0.0000 H   0  0  0  0  0  0  0  0  0  0  0  0
    6.9282   -0.8000    0.0000 H   0  0  0  0  0  0  0  0  0  0  0  0
    5.5426    1.6000    0.0000 H   0  0  0  0  0  0  0  0  0  0  0  0
  1  2  1  0  0  0  0
  1  3  1  0  0  0  0
  1  4  1  0  0  0  0
  4  5  1  0  0  0  0
  4  6  1  0  0  0  0
  6  7  1  0  0  0  0
  6  8  1  0  0  0  0
  6  9  1  0  0  0  0
  9 10  1  0  0  0  0
  9 11  1  0  0  0  0
  9 12  1  0  0  0  0
  4 13  1  0  0  0  0
 13 14  1  0  0  0  0
 13 15  1  0  0  0  0
 13 16  1  0  0  0  0
  1 17  1  0  0  0  0
 17 18  1  0  0  0  0
 18 19  2  0  0  0  0
 18 20  1  0  0  0  0
 20 21  1  0  0  0  0
 20 22  1  0  0  0  0
 20 23  1  0  0  0  0
M  END
> <ChemID>
102878

> <source_casrn>
624-41-9

> <CAS>
624-41-9

> <SMILES>
CCC(C)COC(C)=O

> <NAME>
1-Butanol, 2-methyl-, acetate

> <preferred_name>
2-Methylbutyl acetate

> <iupac>
2-methylbutyl acetate

> <MPID>
21866

> <dsstox_substance_id>
DTXSID2027254

> <Canonical_QSARr>
CCC(C)COC(C)=O

> <InChI_Code_QSARr>
InChI=1S/C7H14O2/c1-4-6(2)5-9-7(3)8/h6H,4-5H2,1-3H3

> <InChI Key_QSARr>
XHIUFYZDQBSEMF-UHFFFAOYSA-N

> <Salt_Solvent>
?

> <BP>
140.0

$$$$
102883
  -INDIGO-08031720192D

 18 17  0  0  0  0  0  0  0  0999 V2000
   -1.3856   -0.8000    0.0000 C   0  0  0  0  0  0  0  0  0  0  0  0
    0.0001    0.0000    0.0000 C   0  0  0  0  0  0  0  0  0  0  0  0
    0.0001    1.6000    0.0000 H   0  0  0  0  0  0  0  0  0  0  0  0
    1.3856   -0.8000    0.0000 C   0  0  0  0  0  0  0  0  0  0  0  0
    1.3856   -2.4000    0.0000 H   0  0  0  0  0  0  0  0  0  0  0  0
    2.7713    0.0000    0.0000 C   0  0  0  0  0  0  0  0  0  0  0  0
    2.7713    1.6000    0.0000 O   0  0  0  0  0  0  0  0  0  0  0  0
    4.1570   -0.8000    0.0000 O   0  0  0  0  0  0  0  0  0  0  0  0
    5.5425    0.0000    0.0000 C   0  0  0  0  0  0  0  0  0  0  0  0
    6.9282    0.8000    0.0000 H   0  0  0  0  0  0  0  0  0  0  0  0
    6.9282   -0.8000    0.0000 H   0  0  0  0  0  0  0  0  0  0  0  0
    5.5425    1.6000    0.0000 H   0  0  0  0  0  0  0  0  0  0  0  0
   -1.3856   -2.4000    0.0000 O   0  0  0  0  0  0  0  0  0  0  0  0
   -2.7713    0.0000    0.0000 O   0  0  0  0  0  0  0  0  0  0  0  0
   -4.1569   -0.8000    0.0000 C   0  0  0  0  0  0  0  0  0  0  0  0
   -5.5426   -1.6000    0.0000 H   0  0  0  0  0  0  0  0  0  0  0  0
   -5.5426    0.0000    0.0000 H   0  0  0  0  0  0  0  0  0  0  0  0
   -4.1569   -2.4000    0.0000 H   0  0  0  0  0  0  0  0  0  0  0  0
  1  2  1  0  0  0  0
  2  3  1  0  0  0  0
  2  4  2  0  0  0  0
  4  5  1  0  0  0  0
  4  6  1  0  0  0  0
  6  7  2  0  0  0  0
  6  8  1  0  0  0  0
  8  9  1  0  0  0  0
  9 10  1  0  0  0  0
  9 11  1  0  0  0  0
  9 12  1  0  0  0  0
  1 13  2  0  0  0  0
  1 14  1  0  0  0  0
 14 15  1  0  0  0  0
 15 16  1  0  0  0  0
 15 17  1  0  0  0  0
 15 18  1  0  0  0  0
M  END
> <ChemID>
102883

> <source_casrn>
624-48-6|624-49-7

> <CAS>
624-48-6|624-49-7

> <SMILES>
COC(=O)/C=C\C(=O)OC

> <NAME>
METHYL MALEATE, 2-BUTENEDIOIC ACID (E)-, DIMETHYL ESTER

> <preferred_name>
Dimethyl maleate

> <iupac>
dimethyl (2Z)-but-2-enedioate

> <MPID>
21870|21871

> <dsstox_substance_id>
DTXSID4040765|DTXSID4060787

> <Canonical_QSARr>
COC(=O)C=CC(=O)OC

> <InChI_Code_QSARr>
InChI=1S/C6H8O4/c1-9-5(7)3-4-6(8)10-2/h3-4H,1-2H3/b4-3+

> <InChI Key_QSARr>
LDCRTTXIJACKKU-ONEGZZNKSA-N

> <Salt_Solvent>
?

> <BP>
197.5

$$$$
102889
  -INDIGO-08031720192D

  8  7  0  0  0  0  0  0  0  0999 V2000
    0.8000    1.3856    0.0000 I   0  0  0  0  0  0  0  0  0  0  0  0
    0.0000    0.0000    0.0000 C   0  0  0  0  0  0  0  0  0  0  0  0
    1.6000   -0.0000    0.0000 H   0  0  0  0  0  0  0  0  0  0  0  0
    0.8000   -1.3856    0.0000 H   0  0  0  0  0  0  0  0  0  0  0  0
   -1.6000    0.0000    0.0000 C   0  0  0  0  0  0  0  0  0  0  0  0
   -3.2000    0.0000    0.0000 H   0  0  0  0  0  0  0  0  0  0  0  0
   -2.4000   -1.3856    0.0000 H   0  0  0  0  0  0  0  0  0  0  0  0
   -2.4000    1.3856    0.0000 Cl  0  0  0  0  0  0  0  0  0  0  0  0
  1  2  1  0  0  0  0
  2  3  1  0  0  0  0
  2  4  1  0  0  0  0
  2  5  1  0  0  0  0
  5  6  1  0  0  0  0
  5  7  1  0  0  0  0
  5  8  1  0  0  0  0
M  END
> <ChemID>
102889

> <source_casrn>
624-70-4

> <CAS>
624-70-4

> <SMILES>
ClCCI

> <NAME>
1-chloro-2-iodoethane

> <preferred_name>
1,2-Chloroiodoethane

> <iupac>
1-Chloro-2-iodoethane

> <MPID>
21876

> <dsstox_substance_id>
DTXSID60211458

> <Canonical_QSARr>
ClCCI

> <InChI_Code_QSARr>
InChI=1S/C2H4ClI/c3-1-2-4/h1-2H2

> <InChI Key_QSARr>
JTWWWQGSFTWWDL-UHFFFAOYSA-N

> <Salt_Solvent>
?

> <BP>
140.0

$$$$
102893
  -INDIGO-08031720192D

 13 12  0  0  0  0  0  0  0  0999 V2000
    0.0000    0.0000    0.0000 C   0  0  0  0  0  0  0  0  0  0  0  0
    0.6123   -1.4782    0.0000 H   0  0  0  0  0  0  0  0  0  0  0  0
   -0.6123   -1.4782    0.0000 H   0  0  0  0  0  0  0  0  0  0  0  0
    1.3856    0.8000    0.0000 N   0  0  0  0  0  0  0  0  0  0  0  0
    1.3856    2.4000    0.0000 H   0  0  0  0  0  0  0  0  0  0  0  0
    2.7713    0.0000    0.0000 C   0  0  0  0  0  0  0  0  0  0  0  0
    4.1569   -0.8000    0.0000 H   0  0  0  0  0  0  0  0  0  0  0  0
    4.1569    0.8000    0.0000 H   0  0  0  0  0  0  0  0  0  0  0  0
    2.7713   -1.6000    0.0000 H   0  0  0  0  0  0  0  0  0  0  0  0
   -1.3856    0.8000    0.0000 C   0  0  0  0  0  0  0  0  0  0  0  0
   -2.7713    1.6000    0.0000 H   0  0  0  0  0  0  0  0  0  0  0  0
   -2.7713    0.0000    0.0000 H   0  0  0  0  0  0  0  0  0  0  0  0
   -1.3856    2.4000    0.0000 H   0  0  0  0  0  0  0  0  0  0  0  0
  1  2  1  0  0  0  0
  1  3  1  0  0  0  0
  1  4  1  0  0  0  0
  4  5  1  0  0  0  0
  4  6  1  0  0  0  0
  6  7  1  0  0  0  0
  6  8  1  0  0  0  0
  6  9  1  0  0  0  0
  1 10  1  0  0  0  0
 10 11  1  0  0  0  0
 10 12  1  0  0  0  0
 10 13  1  0  0  0  0
M  END
> <ChemID>
102893

> <source_casrn>
624-78-2

> <CAS>
624-78-2

> <SMILES>
CCNC

> <NAME>
METHYLETHYLAMINE

> <preferred_name>
Ethanamine, N-methyl-

> <iupac>
N-METHYLETHANAMINE

> <MPID>
21880

> <dsstox_substance_id>
DTXSID8060793

> <Canonical_QSARr>
CCNC

> <InChI_Code_QSARr>
InChI=1S/C3H9N/c1-3-4-2/h4H,3H2,1-2H3

> <InChI Key_QSARr>
LIWAQLJGPBVORC-UHFFFAOYSA-N

> <Salt_Solvent>
?

> <BP>
36.5

$$$$
102897
  -INDIGO-08031720192D

 10  9  0  0  0  0  0  0  0  0999 V2000
    2.7713    0.0000    0.0000 S   0  0  0  0  0  0  0  0  0  0  0  0
    4.1569   -0.8000    0.0000 C   0  0  0  0  0  0  0  0  0  0  0  0
    5.5426   -1.6000    0.0000 H   0  0  0  0  0  0  0  0  0  0  0  0
    5.5426    0.0000    0.0000 H   0  0  0  0  0  0  0  0  0  0  0  0
    4.1569   -2.4000    0.0000 H   0  0  0  0  0  0  0  0  0  0  0  0
    1.3856   -0.8000    0.0000 S   0  0  0  0  0  0  0  0  0  0  0  0
    0.0000    0.0000    0.0000 C   0  0  0  0  0  0  0  0  0  0  0  0
   -1.3856    0.8000    0.0000 H   0  0  0  0  0  0  0  0  0  0  0  0
    0.0000    1.6000    0.0000 H   0  0  0  0  0  0  0  0  0  0  0  0
   -1.3856   -0.8000    0.0000 H   0  0  0  0  0  0  0  0  0  0  0  0
  1  2  1  0  0  0  0
  2  3  1  0  0  0  0
  2  4  1  0  0  0  0
  2  5  1  0  0  0  0
  1  6  1  0  0  0  0
  6  7  1  0  0  0  0
  7  8  1  0  0  0  0
  7  9  1  0  0  0  0
  7 10  1  0  0  0  0
M  END
> <ChemID>
102897

> <source_casrn>
624-92-0

> <CAS>
624-92-0

> <SMILES>
CSSC

> <NAME>
DIMETHYLDISULFIDE

> <preferred_name>
Methyl disulfide

> <iupac>
dimethyl disulfide

> <MPID>
21884

> <dsstox_substance_id>
DTXSID4025117

> <Canonical_QSARr>
CSSC

> <InChI_Code_QSARr>
InChI=1S/C2H6S2/c1-3-4-2/h1-2H3

> <InChI Key_QSARr>
WQOXQRCZOLPYPM-UHFFFAOYSA-N

> <Salt_Solvent>
?

> <BP>
109.8

$$$$
102901
  -INDIGO-08031720192D

 21 20  0  0  0  0  0  0  0  0999 V2000
    1.6001   -0.0000    0.0000 C   0  0  0  0  0  0  0  0  0  0  0  0
    1.8089   -1.5863    0.0000 H   0  0  0  0  0  0  0  0  0  0  0  0
    2.8693   -0.9741    0.0000 H   0  0  0  0  0  0  0  0  0  0  0  0
    0.0000   -0.0000    0.0000 C   0  0  0  0  0  0  0  0  0  0  0  0
    0.0000   -1.6000    0.0000 N   0  0  0  0  0  0  0  0  0  0  0  0
   -1.3856   -2.4000    0.0000 H   0  0  0  0  0  0  0  0  0  0  0  0
    1.2257   -2.6285    0.0000 H   0  0  0  0  0  0  0  0  0  0  0  0
   -1.5999   -0.0000    0.0000 C   0  0  0  0  0  0  0  0  0  0  0  0
   -3.2000   -0.0000    0.0000 H   0  0  0  0  0  0  0  0  0  0  0  0
   -2.4000    1.3856    0.0000 H   0  0  0  0  0  0  0  0  0  0  0  0
   -2.4000   -1.3857    0.0000 H   0  0  0  0  0  0  0  0  0  0  0  0
    0.0000    1.6000    0.0000 C   0  0  0  0  0  0  0  0  0  0  0  0
    0.0000    3.2000    0.0000 H   0  0  0  0  0  0  0  0  0  0  0  0
    1.3856    2.4000    0.0000 H   0  0  0  0  0  0  0  0  0  0  0  0
   -1.3856    2.4000    0.0000 H   0  0  0  0  0  0  0  0  0  0  0  0
    2.8257    1.0284    0.0000 C   0  0  0  0  0  0  0  0  0  0  0  0
    2.5478    2.6041    0.0000 O   0  0  0  0  0  0  0  0  0  0  0  0
    4.3292    0.4812    0.0000 C   0  0  0  0  0  0  0  0  0  0  0  0
    5.8327   -0.0660    0.0000 H   0  0  0  0  0  0  0  0  0  0  0  0
    5.5548    1.5097    0.0000 H   0  0  0  0  0  0  0  0  0  0  0  0
    4.6070   -1.0945    0.0000 H   0  0  0  0  0  0  0  0  0  0  0  0
  1  2  1  0  0  0  0
  1  3  1  0  0  0  0
  1  4  1  0  0  0  0
  4  5  1  0  0  0  0
  5  6  1  0  0  0  0
  5  7  1  0  0  0  0
  4  8  1  0  0  0  0
  8  9  1  0  0  0  0
  8 10  1  0  0  0  0
  8 11  1  0  0  0  0
  4 12  1  0  0  0  0
 12 13  1  0  0  0  0
 12 14  1  0  0  0  0
 12 15  1  0  0  0  0
  1 16  1  0  0  0  0
 16 17  2  0  0  0  0
 16 18  1  0  0  0  0
 18 19  1  0  0  0  0
 18 20  1  0  0  0  0
 18 21  1  0  0  0  0
M  END
> <ChemID>
102901

> <source_casrn>
625-04-7

> <CAS>
625-04-7

> <SMILES>
CC(=O)CC(C)(C)N

> <NAME>
Diacetonamine

> <preferred_name>
2-Pentanone, 4-amino-4-methyl-

> <iupac>
4-Amino-4-methylpentan-2-one

> <MPID>
21888

> <dsstox_substance_id>
DTXSID3060798

> <Canonical_QSARr>
CC(=O)CC(C)(C)N

> <InChI_Code_QSARr>
InChI=1S/C6H13NO/c1-5(8)4-6(2,3)7/h4,7H2,1-3H3

> <InChI Key_QSARr>
CQTRUFMMCCOKTA-UHFFFAOYSA-N

> <Salt_Solvent>
?

> <BP>
180.0

$$$$
102905
  -INDIGO-08031720192D

 18 17  0  0  0  0  0  0  0  0999 V2000
    1.3857   -0.8000    0.0000 C   0  0  0  0  0  0  0  0  0  0  0  0
    1.3857   -2.4000    0.0000 H   0  0  0  0  0  0  0  0  0  0  0  0
    0.0000   -0.0000    0.0000 C   0  0  0  0  0  0  0  0  0  0  0  0
    0.0000    1.6000    0.0000 C   0  0  0  0  0  0  0  0  0  0  0  0
    0.0000    3.2000    0.0000 H   0  0  0  0  0  0  0  0  0  0  0  0
   -1.3856    2.4000    0.0000 H   0  0  0  0  0  0  0  0  0  0  0  0
    1.3857    2.4000    0.0000 H   0  0  0  0  0  0  0  0  0  0  0  0
   -1.3856   -0.8000    0.0000 C   0  0  0  0  0  0  0  0  0  0  0  0
   -2.7713   -1.6000    0.0000 H   0  0  0  0  0  0  0  0  0  0  0  0
   -1.3856   -2.4000    0.0000 H   0  0  0  0  0  0  0  0  0  0  0  0
   -2.7713   -0.0000    0.0000 H   0  0  0  0  0  0  0  0  0  0  0  0
    2.7713   -0.0000    0.0000 C   0  0  0  0  0  0  0  0  0  0  0  0
    2.1590    1.4782    0.0000 H   0  0  0  0  0  0  0  0  0  0  0  0
    3.3835    1.4782    0.0000 H   0  0  0  0  0  0  0  0  0  0  0  0
    4.1570   -0.8000    0.0000 C   0  0  0  0  0  0  0  0  0  0  0  0
    5.5426   -1.6000    0.0000 H   0  0  0  0  0  0  0  0  0  0  0  0
    5.5426   -0.0000    0.0000 H   0  0  0  0  0  0  0  0  0  0  0  0
    4.1570   -2.4000    0.0000 H   0  0  0  0  0  0  0  0  0  0  0  0
  1  2  1  0  0  0  0
  1  3  2  0  0  0  0
  3  4  1  0  0  0  0
  4  5  1  0  0  0  0
  4  6  1  0  0  0  0
  4  7  1  0  0  0  0
  3  8  1  0  0  0  0
  8  9  1  0  0  0  0
  8 10  1  0  0  0  0
  8 11  1  0  0  0  0
  1 12  1  0  0  0  0
 12 13  1  0  0  0  0
 12 14  1  0  0  0  0
 12 15  1  0  0  0  0
 15 16  1  0  0  0  0
 15 17  1  0  0  0  0
 15 18  1  0  0  0  0
M  END
> <ChemID>
102905

> <source_casrn>
625-27-4

> <CAS>
625-27-4

> <SMILES>
CCC=C(C)C

> <NAME>
2-METHYL-2-PENTENE

> <preferred_name>
2-Methyl-2-pentene

> <iupac>
2-Methylpent-2-ene

> <MPID>
21892

> <dsstox_substance_id>
DTXSID8073217

> <Canonical_QSARr>
CCC=C(C)C

> <InChI_Code_QSARr>
InChI=1S/C6H12/c1-4-5-6(2)3/h5H,4H2,1-3H3

> <InChI Key_QSARr>
JMMZCWZIJXAGKW-UHFFFAOYSA-N

> <Salt_Solvent>
?

> <BP>
67.3

$$$$
102909
  -INDIGO-08031720192D

 16 15  0  0  0  0  0  0  0  0999 V2000
    0.8000    1.3857    0.0000 O   0  0  0  0  0  0  0  0  0  0  0  0
    2.4000    1.3857    0.0000 H   0  0  0  0  0  0  0  0  0  0  0  0
    0.0000    0.0000    0.0000 C   0  0  0  0  0  0  0  0  0  0  0  0
   -0.8000   -1.3857    0.0000 H   0  0  0  0  0  0  0  0  0  0  0  0
   -1.3856    0.8000    0.0000 C   0  0  0  0  0  0  0  0  0  0  0  0
   -0.7733    2.2782    0.0000 H   0  0  0  0  0  0  0  0  0  0  0  0
   -1.9979    2.2782    0.0000 H   0  0  0  0  0  0  0  0  0  0  0  0
   -2.7713    0.0000    0.0000 C   0  0  0  0  0  0  0  0  0  0  0  0
   -2.7713   -1.6000    0.0000 H   0  0  0  0  0  0  0  0  0  0  0  0
   -4.1569    0.8000    0.0000 C   0  0  0  0  0  0  0  0  0  0  0  0
   -5.5426    0.0000    0.0000 H   0  0  0  0  0  0  0  0  0  0  0  0
   -4.1569    2.4000    0.0000 H   0  0  0  0  0  0  0  0  0  0  0  0
    1.3857   -0.8000    0.0000 C   0  0  0  0  0  0  0  0  0  0  0  0
    2.7713   -1.6000    0.0000 H   0  0  0  0  0  0  0  0  0  0  0  0
    2.7713    0.0000    0.0000 H   0  0  0  0  0  0  0  0  0  0  0  0
    1.3857   -2.4000    0.0000 H   0  0  0  0  0  0  0  0  0  0  0  0
  1  2  1  0  0  0  0
  1  3  1  0  0  0  0
  3  4  1  0  0  0  0
  3  5  1  0  0  0  0
  5  6  1  0  0  0  0
  5  7  1  0  0  0  0
  5  8  1  0  0  0  0
  8  9  1  0  0  0  0
  8 10  2  0  0  0  0
 10 11  1  0  0  0  0
 10 12  1  0  0  0  0
  3 13  1  0  0  0  0
 13 14  1  0  0  0  0
 13 15  1  0  0  0  0
 13 16  1  0  0  0  0
M  END
> <ChemID>
102909

> <source_casrn>
625-31-0

> <CAS>
55563-79-6

> <SMILES>
C[C@H](O)CC=C

> <NAME>
4-Penten-2-ol

> <preferred_name>
(S)-(+)-4-Penten-2-ol

> <iupac>
C5H10O

> <MPID>
21896

> <dsstox_substance_id>
DTXSID40426381

> <Canonical_QSARr>
CC(O)CC=C

> <InChI_Code_QSARr>
InChI=1S/C5H10O/c1-3-4-5(2)6/h3,5-6H,1,4H2,2H3

> <InChI Key_QSARr>
ZHZCYWWNFQUZOR-UHFFFAOYSA-N

> <Salt_Solvent>
?

> <BP>
116.0

$$$$
102913
  -INDIGO-08031720192D

 18 17  0  0  0  0  0  0  0  0999 V2000
   -2.4000    1.3856    0.0000 O   0  0  0  0  0  0  0  0  0  0  0  0
   -1.6000    0.0000    0.0000 C   0  0  0  0  0  0  0  0  0  0  0  0
   -1.8089   -1.5863    0.0000 H   0  0  0  0  0  0  0  0  0  0  0  0
   -2.8694   -0.9740    0.0000 H   0  0  0  0  0  0  0  0  0  0  0  0
   -0.0000    0.0000    0.0000 C   0  0  0  0  0  0  0  0  0  0  0  0
   -0.0000   -1.6000    0.0000 H   0  0  0  0  0  0  0  0  0  0  0  0
    1.6001    0.0000    0.0000 C   0  0  0  0  0  0  0  0  0  0  0  0
    3.2000    0.0000    0.0000 H   0  0  0  0  0  0  0  0  0  0  0  0
    2.4000   -1.3856    0.0000 H   0  0  0  0  0  0  0  0  0  0  0  0
    2.4000    1.3856    0.0000 H   0  0  0  0  0  0  0  0  0  0  0  0
   -0.0000    1.6000    0.0000 C   0  0  0  0  0  0  0  0  0  0  0  0
   -0.0000    3.2000    0.0000 H   0  0  0  0  0  0  0  0  0  0  0  0
   -1.3856    2.4000    0.0000 H   0  0  0  0  0  0  0  0  0  0  0  0
    1.3856    2.4000    0.0000 H   0  0  0  0  0  0  0  0  0  0  0  0
   -4.0001    1.3856    0.0000 C   0  0  0  0  0  0  0  0  0  0  0  0
   -5.6000    1.3856    0.0000 H   0  0  0  0  0  0  0  0  0  0  0  0
   -4.8000    2.7713    0.0000 H   0  0  0  0  0  0  0  0  0  0  0  0
   -4.8000    0.0000    0.0000 H   0  0  0  0  0  0  0  0  0  0  0  0
  1  2  1  0  0  0  0
  2  3  1  0  0  0  0
  2  4  1  0  0  0  0
  2  5  1  0  0  0  0
  5  6  1  0  0  0  0
  5  7  1  0  0  0  0
  7  8  1  0  0  0  0
  7  9  1  0  0  0  0
  7 10  1  0  0  0  0
  5 11  1  0  0  0  0
 11 12  1  0  0  0  0
 11 13  1  0  0  0  0
 11 14  1  0  0  0  0
  1 15  1  0  0  0  0
 15 16  1  0  0  0  0
 15 17  1  0  0  0  0
 15 18  1  0  0  0  0
M  END
> <ChemID>
102913

> <source_casrn>
625-44-5

> <CAS>
625-44-5

> <SMILES>
COCC(C)C

> <NAME>
METHYL ISOBUTYL ETHER

> <preferred_name>
Ether, isobutyl methyl

> <iupac>
1-Methoxy-2-methylpropane

> <MPID>
21900

> <dsstox_substance_id>
DTXSID70211540

> <Canonical_QSARr>
COCC(C)C

> <InChI_Code_QSARr>
InChI=1S/C5H12O/c1-5(2)4-6-3/h5H,4H2,1-3H3

> <InChI Key_QSARr>
ZYVYEJXMYBUCMN-UHFFFAOYSA-N

> <Salt_Solvent>
?

> <BP>
58.6

$$$$
102917
  -INDIGO-08031720192D

 11 10  0  0  0  0  0  0  0  0999 V2000
    2.7713    0.0000    0.0000 O   0  0  0  0  0  0  0  0  0  0  0  0
    4.1569    0.8000    0.0000 H   0  0  0  0  0  0  0  0  0  0  0  0
    1.3856    0.8000    0.0000 C   0  0  0  0  0  0  0  0  0  0  0  0
    0.7733    2.2782    0.0000 H   0  0  0  0  0  0  0  0  0  0  0  0
    1.9980    2.2782    0.0000 H   0  0  0  0  0  0  0  0  0  0  0  0
    0.0000    0.0000    0.0000 C   0  0  0  0  0  0  0  0  0  0  0  0
    0.6123   -1.4782    0.0000 H   0  0  0  0  0  0  0  0  0  0  0  0
   -0.6123   -1.4782    0.0000 H   0  0  0  0  0  0  0  0  0  0  0  0
   -1.3856    0.8000    0.0000 N   0  0  0  0  0  0  0  0  0  0  0  0
   -2.7713    0.0000    0.0000 O   0  0  0  0  0  0  0  0  0  0  0  0
   -1.3856    2.4000    0.0000 O   0  0  0  0  0  0  0  0  0  0  0  0
  1  2  1  0  0  0  0
  1  3  1  0  0  0  0
  3  4  1  0  0  0  0
  3  5  1  0  0  0  0
  3  6  1  0  0  0  0
  6  7  1  0  0  0  0
  6  8  1  0  0  0  0
  6  9  1  0  0  0  0
  9 10  2  0  0  0  0
  9 11  1  0  0  0  0
M  CHG  2   9   1  11  -1
M  END
> <ChemID>
102917

> <source_casrn>
625-48-9

> <CAS>
625-48-9

> <SMILES>
[O-][N+](=O)CCO

> <NAME>
2-NITROETHANOL

> <preferred_name>
2-Nitroethanol

> <iupac>
2-nitroethanol

> <MPID>
21904

> <dsstox_substance_id>
DTXSID8025751

> <Canonical_QSARr>
[O-][N+](=O)CCO

> <InChI_Code_QSARr>
InChI=1S/C2H5NO3/c4-2-1-3(5)6/h4H,1-2H2

> <InChI Key_QSARr>
KIPMDPDAFINLIV-UHFFFAOYSA-N

> <Salt_Solvent>
?

> <BP>
194.0

$$$$
102921
  -INDIGO-08031720192D

 11 10  0  0  0  0  0  0  0  0999 V2000
    4.1569   -2.4000    0.0000 Cl  0  0  0  0  0  0  0  0  0  0  0  0
    4.1569   -0.8000    0.0000 C   0  0  0  0  0  0  0  0  0  0  0  0
    5.5426   -1.6000    0.0000 H   0  0  0  0  0  0  0  0  0  0  0  0
    5.5426    0.0000    0.0000 H   0  0  0  0  0  0  0  0  0  0  0  0
    2.7713    0.0000    0.0000 O   0  0  0  0  0  0  0  0  0  0  0  0
    1.3856   -0.8000    0.0000 C   0  0  0  0  0  0  0  0  0  0  0  0
    1.3856   -2.4000    0.0000 O   0  0  0  0  0  0  0  0  0  0  0  0
    0.0000    0.0000    0.0000 C   0  0  0  0  0  0  0  0  0  0  0  0
   -1.3856    0.8000    0.0000 H   0  0  0  0  0  0  0  0  0  0  0  0
    0.0000    1.6000    0.0000 H   0  0  0  0  0  0  0  0  0  0  0  0
   -1.3856   -0.8000    0.0000 H   0  0  0  0  0  0  0  0  0  0  0  0
  1  2  1  0  0  0  0
  2  3  1  0  0  0  0
  2  4  1  0  0  0  0
  2  5  1  0  0  0  0
  5  6  1  0  0  0  0
  6  7  2  0  0  0  0
  6  8  1  0  0  0  0
  8  9  1  0  0  0  0
  8 10  1  0  0  0  0
  8 11  1  0  0  0  0
M  END
> <ChemID>
102921

> <source_casrn>
625-56-9

> <CAS>
625-56-9

> <SMILES>
CC(=O)OCCl

> <NAME>
Chlorometh acetate

> <preferred_name>
Chloromethyl acetate

> <iupac>
Chloromethyl acetate

> <MPID>
21908

> <dsstox_substance_id>
DTXSID10211544

> <Canonical_QSARr>
CC(=O)OCCl

> <InChI_Code_QSARr>
InChI=1S/C3H5ClO2/c1-3(5)6-2-4/h2H2,1H3

> <InChI Key_QSARr>
SMJYMSAPPGLBAR-UHFFFAOYSA-N

> <Salt_Solvent>
?

> <BP>
116.0

$$$$
102925
  -INDIGO-08031720192D

 17 16  0  0  0  0  0  0  0  0999 V2000
    2.4513   -2.0569    0.0000 Cl  0  0  0  0  0  0  0  0  0  0  0  0
    2.7292   -0.4813    0.0000 C   0  0  0  0  0  0  0  0  0  0  0  0
    3.9548   -1.5097    0.0000 H   0  0  0  0  0  0  0  0  0  0  0  0
    4.2327    0.0660    0.0000 Cl  0  0  0  0  0  0  0  0  0  0  0  0
    1.5036    0.5472    0.0000 C   0  0  0  0  0  0  0  0  0  0  0  0
    1.1572    2.1093    0.0000 H   0  0  0  0  0  0  0  0  0  0  0  0
    2.3631    1.8967    0.0000 H   0  0  0  0  0  0  0  0  0  0  0  0
   -0.0000    0.0000    0.0000 C   0  0  0  0  0  0  0  0  0  0  0  0
    0.8000   -1.3856    0.0000 H   0  0  0  0  0  0  0  0  0  0  0  0
   -1.3857   -0.8000    0.0000 C   0  0  0  0  0  0  0  0  0  0  0  0
   -2.7713   -1.6000    0.0000 H   0  0  0  0  0  0  0  0  0  0  0  0
   -1.3857   -2.4000    0.0000 H   0  0  0  0  0  0  0  0  0  0  0  0
   -2.7713    0.0000    0.0000 H   0  0  0  0  0  0  0  0  0  0  0  0
   -0.8000    1.3856    0.0000 C   0  0  0  0  0  0  0  0  0  0  0  0
   -1.6001    2.7713    0.0000 H   0  0  0  0  0  0  0  0  0  0  0  0
   -0.0000    2.7713    0.0000 H   0  0  0  0  0  0  0  0  0  0  0  0
   -2.4000    1.3856    0.0000 H   0  0  0  0  0  0  0  0  0  0  0  0
  1  2  1  0  0  0  0
  2  3  1  0  0  0  0
  2  4  1  0  0  0  0
  2  5  1  0  0  0  0
  5  6  1  0  0  0  0
  5  7  1  0  0  0  0
  5  8  1  0  0  0  0
  8  9  1  0  0  0  0
  8 10  1  0  0  0  0
 10 11  1  0  0  0  0
 10 12  1  0  0  0  0
 10 13  1  0  0  0  0
  8 14  1  0  0  0  0
 14 15  1  0  0  0  0
 14 16  1  0  0  0  0
 14 17  1  0  0  0  0
M  END
> <ChemID>
102925

> <source_casrn>
625-66-1

> <CAS>
625-66-1

> <SMILES>
CC(C)CC(Cl)Cl

> <NAME>
BUTANE, 1,1-DICHLORO-3-METHYL-

> <preferred_name>
Butane, 1,1-dichloro-3-methyl-

> <iupac>
1,1-Dichloro-3-methylbutane

> <MPID>
21912

> <dsstox_substance_id>
DTXSID30211546

> <Canonical_QSARr>
CC(C)CC(Cl)Cl

> <InChI_Code_QSARr>
InChI=1S/C5H10Cl2/c1-4(2)3-5(6)7/h4-5H,3H2,1-2H3

> <InChI Key_QSARr>
VXEMJASOVHTHLL-UHFFFAOYSA-N

> <Salt_Solvent>
?

> <BP>
130.0

$$$$
102929
  -INDIGO-08031720192D

 14 13  0  0  0  0  0  0  0  0999 V2000
   -1.3856    2.4000    0.0000 O   0  0  0  0  0  0  0  0  0  0  0  0
   -1.3856    0.8000    0.0000 C   0  0  0  0  0  0  0  0  0  0  0  0
    0.0001    0.0000    0.0000 N   0  0  0  0  0  0  0  0  0  0  0  0
    0.0001   -1.6000    0.0000 H   0  0  0  0  0  0  0  0  0  0  0  0
    1.3856    0.8000    0.0000 C   0  0  0  0  0  0  0  0  0  0  0  0
    1.3856    2.4000    0.0000 O   0  0  0  0  0  0  0  0  0  0  0  0
    2.7713    0.0000    0.0000 C   0  0  0  0  0  0  0  0  0  0  0  0
    4.1569   -0.8000    0.0000 H   0  0  0  0  0  0  0  0  0  0  0  0
    4.1569    0.8000    0.0000 H   0  0  0  0  0  0  0  0  0  0  0  0
    2.7713   -1.6000    0.0000 H   0  0  0  0  0  0  0  0  0  0  0  0
   -2.7712    0.0000    0.0000 C   0  0  0  0  0  0  0  0  0  0  0  0
   -4.1569   -0.8000    0.0000 H   0  0  0  0  0  0  0  0  0  0  0  0
   -4.1569    0.8000    0.0000 H   0  0  0  0  0  0  0  0  0  0  0  0
   -2.7713   -1.6000    0.0000 H   0  0  0  0  0  0  0  0  0  0  0  0
  1  2  2  0  0  0  0
  2  3  1  0  0  0  0
  3  4  1  0  0  0  0
  3  5  1  0  0  0  0
  5  6  2  0  0  0  0
  5  7  1  0  0  0  0
  7  8  1  0  0  0  0
  7  9  1  0  0  0  0
  7 10  1  0  0  0  0
  2 11  1  0  0  0  0
 11 12  1  0  0  0  0
 11 13  1  0  0  0  0
 11 14  1  0  0  0  0
M  END
> <ChemID>
102929

> <source_casrn>
625-77-4

> <CAS>
625-77-4

> <SMILES>
CC(=O)NC(C)=O

> <NAME>
DIACETAMIDE

> <preferred_name>
Diacetamide

> <iupac>
N-Acetylacetamide

> <MPID>
21916

> <dsstox_substance_id>
DTXSID10211549

> <Canonical_QSARr>
CC(=O)NC(C)=O

> <InChI_Code_QSARr>
InChI=1S/C4H7NO2/c1-3(6)5-4(2)7/h1-2H3,(H,5,6,7)

> <InChI Key_QSARr>
ZSBDPRIWBYHIAF-UHFFFAOYSA-N

> <Salt_Solvent>
?

> <BP>
223.5

$$$$
102933
  -INDIGO-08031720192D

 15 15  0  0  0  0  0  0  0  0999 V2000
    1.3856    0.8000    0.0000 O   0  0  0  0  0  0  0  0  0  0  0  0
    2.5746   -0.2706    0.0000 C   0  0  0  0  0  0  0  0  0  0  0  0
    4.1397    0.0621    0.0000 C   0  0  0  0  0  0  0  0  0  0  0  0
    5.7047    0.3947    0.0000 H   0  0  0  0  0  0  0  0  0  0  0  0
    4.6341    1.5837    0.0000 H   0  0  0  0  0  0  0  0  0  0  0  0
    5.2104   -1.1270    0.0000 H   0  0  0  0  0  0  0  0  0  0  0  0
    1.9238   -1.7323    0.0000 C   0  0  0  0  0  0  0  0  0  0  0  0
    2.7239   -3.1179    0.0000 H   0  0  0  0  0  0  0  0  0  0  0  0
    0.3326   -1.5650    0.0000 C   0  0  0  0  0  0  0  0  0  0  0  0
   -0.7380   -2.7541    0.0000 H   0  0  0  0  0  0  0  0  0  0  0  0
   -0.0001   -0.0000    0.0000 C   0  0  0  0  0  0  0  0  0  0  0  0
   -1.4617    0.6508    0.0000 C   0  0  0  0  0  0  0  0  0  0  0  0
   -2.9233    1.3015    0.0000 H   0  0  0  0  0  0  0  0  0  0  0  0
   -1.6289    2.2420    0.0000 H   0  0  0  0  0  0  0  0  0  0  0  0
   -2.7561   -0.2897    0.0000 H   0  0  0  0  0  0  0  0  0  0  0  0
  1  2  1  0  0  0  0
  2  3  1  0  0  0  0
  3  4  1  0  0  0  0
  3  5  1  0  0  0  0
  3  6  1  0  0  0  0
  2  7  2  0  0  0  0
  7  8  1  0  0  0  0
  7  9  1  0  0  0  0
  9 10  1  0  0  0  0
  9 11  2  0  0  0  0
 11  1  1  0  0  0  0
 11 12  1  0  0  0  0
 12 13  1  0  0  0  0
 12 14  1  0  0  0  0
 12 15  1  0  0  0  0
M  END
> <ChemID>
102933

> <source_casrn>
625-86-5

> <CAS>
625-86-5

> <SMILES>
Cc1ccc(C)o1

> <NAME>
FURAN, 2,5-DIMETHYL-

> <preferred_name>
2,5-Dimethylfuran

> <iupac>
2,5-dimethylfuran

> <MPID>
21920

> <dsstox_substance_id>
DTXSID7022093

> <Canonical_QSARr>
Cc1ccc(C)o1

> <InChI_Code_QSARr>
InChI=1S/C6H8O/c1-5-3-4-6(2)7-5/h3-4H,1-2H3

> <InChI Key_QSARr>
GSNUFIFRDBKVIE-UHFFFAOYSA-N

> <Salt_Solvent>
?

> <BP>
93.5

$$$$
102939
  -INDIGO-08031720192D

 18 18  0  0  0  0  0  0  0  0999 V2000
   -1.3856    0.8000    0.0000 C   0  0  0  0  0  0  0  0  0  0  0  0
   -1.3856    2.4000    0.0000 H   0  0  0  0  0  0  0  0  0  0  0  0
   -2.7713   -0.0000    0.0000 C   0  0  0  0  0  0  0  0  0  0  0  0
   -4.1569    0.8000    0.0000 C   0  0  0  0  0  0  0  0  0  0  0  0
   -5.5426    1.6000    0.0000 H   0  0  0  0  0  0  0  0  0  0  0  0
   -5.5426   -0.0000    0.0000 H   0  0  0  0  0  0  0  0  0  0  0  0
   -4.1569    2.4000    0.0000 Cl  0  0  0  0  0  0  0  0  0  0  0  0
   -2.7713   -1.6000    0.0000 C   0  0  0  0  0  0  0  0  0  0  0  0
   -4.1569   -2.4000    0.0000 H   0  0  0  0  0  0  0  0  0  0  0  0
   -1.3856   -2.4000    0.0000 C   0  0  0  0  0  0  0  0  0  0  0  0
   -1.3856   -4.0000    0.0000 H   0  0  0  0  0  0  0  0  0  0  0  0
    0.0000   -1.6000    0.0000 C   0  0  0  0  0  0  0  0  0  0  0  0
    1.3857   -2.4000    0.0000 H   0  0  0  0  0  0  0  0  0  0  0  0
    0.0000   -0.0000    0.0000 C   0  0  0  0  0  0  0  0  0  0  0  0
    1.3857    0.8000    0.0000 C   0  0  0  0  0  0  0  0  0  0  0  0
    2.7713    1.6000    0.0000 H   0  0  0  0  0  0  0  0  0  0  0  0
    2.7713   -0.0000    0.0000 H   0  0  0  0  0  0  0  0  0  0  0  0
    1.3857    2.4000    0.0000 Cl  0  0  0  0  0  0  0  0  0  0  0  0
  1  2  1  0  0  0  0
  1  3  1  0  0  0  0
  3  4  1  0  0  0  0
  4  5  1  0  0  0  0
  4  6  1  0  0  0  0
  4  7  1  0  0  0  0
  3  8  2  0  0  0  0
  8  9  1  0  0  0  0
  8 10  1  0  0  0  0
 10 11  1  0  0  0  0
 10 12  2  0  0  0  0
 12 13  1  0  0  0  0
 12 14  1  0  0  0  0
 14  1  2  0  0  0  0
 14 15  1  0  0  0  0
 15 16  1  0  0  0  0
 15 17  1  0  0  0  0
 15 18  1  0  0  0  0
M  END
> <ChemID>
102939

> <source_casrn>
626-16-4

> <CAS>
626-16-4

> <SMILES>
ClCc1cc(CCl)ccc1

> <NAME>
1,3-(BIS-CHLOROMETHYL)BENZENE

> <preferred_name>
Benzene, 1,3-bis(chloromethyl)-

> <iupac>
1,3-Bis(chloromethyl)benzene

> <MPID>
21924

> <dsstox_substance_id>
DTXSID4060814

> <Canonical_QSARr>
ClCc1cc(CCl)ccc1

> <InChI_Code_QSARr>
InChI=1S/C8H8Cl2/c9-5-7-2-1-3-8(4-7)6-10/h1-4H,5-6H2

> <InChI Key_QSARr>
GRJWOKACBGZOKT-UHFFFAOYSA-N

> <Salt_Solvent>
?

> <BP>
251.5

$$$$
102943
  -INDIGO-08031720192D

 43 42  0  0  0  0  0  0  0  0999 V2000
    4.1569    0.8000    0.0000 C   0  0  0  0  0  0  0  0  0  0  0  0
    5.5426    1.6000    0.0000 H   0  0  0  0  0  0  0  0  0  0  0  0
    5.5426    0.0000    0.0000 H   0  0  0  0  0  0  0  0  0  0  0  0
    4.1569    2.4000    0.0000 H   0  0  0  0  0  0  0  0  0  0  0  0
    2.7712    0.0000    0.0000 C   0  0  0  0  0  0  0  0  0  0  0  0
    3.3836   -1.4782    0.0000 H   0  0  0  0  0  0  0  0  0  0  0  0
    2.1589   -1.4782    0.0000 H   0  0  0  0  0  0  0  0  0  0  0  0
    1.3856    0.8000    0.0000 C   0  0  0  0  0  0  0  0  0  0  0  0
    0.7733    2.2782    0.0000 H   0  0  0  0  0  0  0  0  0  0  0  0
    1.9979    2.2782    0.0000 H   0  0  0  0  0  0  0  0  0  0  0  0
   -0.0001    0.0000    0.0000 C   0  0  0  0  0  0  0  0  0  0  0  0
    0.6122   -1.4782    0.0000 H   0  0  0  0  0  0  0  0  0  0  0  0
   -0.6124   -1.4782    0.0000 H   0  0  0  0  0  0  0  0  0  0  0  0
   -1.3857    0.8000    0.0000 C   0  0  0  0  0  0  0  0  0  0  0  0
   -1.9981    2.2782    0.0000 H   0  0  0  0  0  0  0  0  0  0  0  0
   -0.7734    2.2782    0.0000 H   0  0  0  0  0  0  0  0  0  0  0  0
   -2.7714    0.0000    0.0000 C   0  0  0  0  0  0  0  0  0  0  0  0
   -2.1591   -1.4782    0.0000 H   0  0  0  0  0  0  0  0  0  0  0  0
   -3.3837   -1.4782    0.0000 H   0  0  0  0  0  0  0  0  0  0  0  0
   -4.1571    0.8000    0.0000 C   0  0  0  0  0  0  0  0  0  0  0  0
   -5.5424    0.0000    0.0000 O   0  0  0  0  0  0  0  0  0  0  0  0
   -6.9281    0.8000    0.0000 C   0  0  0  0  0  0  0  0  0  0  0  0
   -8.3137    0.0000    0.0000 C   0  0  0  0  0  0  0  0  0  0  0  0
   -7.7014   -1.4782    0.0000 H   0  0  0  0  0  0  0  0  0  0  0  0
   -8.9260   -1.4782    0.0000 H   0  0  0  0  0  0  0  0  0  0  0  0
   -9.6994    0.8000    0.0000 C   0  0  0  0  0  0  0  0  0  0  0  0
  -10.3117    2.2782    0.0000 H   0  0  0  0  0  0  0  0  0  0  0  0
   -9.0871    2.2782    0.0000 H   0  0  0  0  0  0  0  0  0  0  0  0
  -11.0850    0.0000    0.0000 C   0  0  0  0  0  0  0  0  0  0  0  0
  -10.4727   -1.4782    0.0000 H   0  0  0  0  0  0  0  0  0  0  0  0
  -11.6974   -1.4782    0.0000 H   0  0  0  0  0  0  0  0  0  0  0  0
  -12.4707    0.8000    0.0000 C   0  0  0  0  0  0  0  0  0  0  0  0
  -13.0830    2.2782    0.0000 H   0  0  0  0  0  0  0  0  0  0  0  0
  -11.8584    2.2782    0.0000 H   0  0  0  0  0  0  0  0  0  0  0  0
  -13.8564    0.0000    0.0000 C   0  0  0  0  0  0  0  0  0  0  0  0
  -13.2440   -1.4782    0.0000 H   0  0  0  0  0  0  0  0  0  0  0  0
  -14.4687   -1.4782    0.0000 H   0  0  0  0  0  0  0  0  0  0  0  0
  -15.2420    0.8000    0.0000 C   0  0  0  0  0  0  0  0  0  0  0  0
  -16.6277    1.6000    0.0000 H   0  0  0  0  0  0  0  0  0  0  0  0
  -16.6277    0.0000    0.0000 H   0  0  0  0  0  0  0  0  0  0  0  0
  -15.2420    2.4000    0.0000 H   0  0  0  0  0  0  0  0  0  0  0  0
   -6.9281    2.4000    0.0000 O   0  0  0  0  0  0  0  0  0  0  0  0
   -4.1571    2.4000    0.0000 O   0  0  0  0  0  0  0  0  0  0  0  0
  1  2  1  0  0  0  0
  1  3  1  0  0  0  0
  1  4  1  0  0  0  0
  1  5  1  0  0  0  0
  5  6  1  0  0  0  0
  5  7  1  0  0  0  0
  5  8  1  0  0  0  0
  8  9  1  0  0  0  0
  8 10  1  0  0  0  0
  8 11  1  0  0  0  0
 11 12  1  0  0  0  0
 11 13  1  0  0  0  0
 11 14  1  0  0  0  0
 14 15  1  0  0  0  0
 14 16  1  0  0  0  0
 14 17  1  0  0  0  0
 17 18  1  0  0  0  0
 17 19  1  0  0  0  0
 17 20  1  0  0  0  0
 20 21  1  0  0  0  0
 21 22  1  0  0  0  0
 22 23  1  0  0  0  0
 23 24  1  0  0  0  0
 23 25  1  0  0  0  0
 23 26  1  0  0  0  0
 26 27  1  0  0  0  0
 26 28  1  0  0  0  0
 26 29  1  0  0  0  0
 29 30  1  0  0  0  0
 29 31  1  0  0  0  0
 29 32  1  0  0  0  0
 32 33  1  0  0  0  0
 32 34  1  0  0  0  0
 32 35  1  0  0  0  0
 35 36  1  0  0  0  0
 35 37  1  0  0  0  0
 35 38  1  0  0  0  0
 38 39  1  0  0  0  0
 38 40  1  0  0  0  0
 38 41  1  0  0  0  0
 22 42  2  0  0  0  0
 20 43  2  0  0  0  0
M  END
> <ChemID>
102943

> <source_casrn>
626-27-7

> <CAS>
NOCAS_870721

> <SMILES>
CCCCCCC(=O)OC(=O)CCCCCC

> <NAME>
Heptanoic acid, anhydride

> <preferred_name>


> <iupac>


> <MPID>
21928

> <dsstox_substance_id>
DTXSID60870721

> <Canonical_QSARr>
CCCCCCC(=O)OC(=O)CCCCCC

> <InChI_Code_QSARr>
InChI=1S/C14H26O3/c1-3-5-7-9-11-13(15)17-14(16)12-10-8-6-4-2/h3-12H2,1-2H3

> <InChI Key_QSARr>
DAPZDAPTZFJZTO-UHFFFAOYSA-N

> <Salt_Solvent>
?

> <BP>
269.5

$$$$
102947
  -INDIGO-08031720192D

 12 12  0  0  0  0  0  0  0  0999 V2000
   -0.0000   -0.0000    0.0000 C   0  0  0  0  0  0  0  0  0  0  0  0
    0.8000    1.3856    0.0000 H   0  0  0  0  0  0  0  0  0  0  0  0
    0.8000   -1.3857    0.0000 C   0  0  0  0  0  0  0  0  0  0  0  0
    2.4000   -1.3857    0.0000 Br  0  0  0  0  0  0  0  0  0  0  0  0
   -0.0000   -2.7713    0.0000 C   0  0  0  0  0  0  0  0  0  0  0  0
    0.8000   -4.1569    0.0000 H   0  0  0  0  0  0  0  0  0  0  0  0
   -1.6000   -2.7713    0.0000 C   0  0  0  0  0  0  0  0  0  0  0  0
   -2.4000   -4.1569    0.0000 Br  0  0  0  0  0  0  0  0  0  0  0  0
   -2.4000   -1.3856    0.0000 C   0  0  0  0  0  0  0  0  0  0  0  0
   -4.0000   -1.3856    0.0000 H   0  0  0  0  0  0  0  0  0  0  0  0
   -1.6000   -0.0000    0.0000 C   0  0  0  0  0  0  0  0  0  0  0  0
   -2.4000    1.3856    0.0000 Br  0  0  0  0  0  0  0  0  0  0  0  0
  1  2  1  0  0  0  0
  1  3  1  0  0  0  0
  3  4  1  0  0  0  0
  3  5  2  0  0  0  0
  5  6  1  0  0  0  0
  5  7  1  0  0  0  0
  7  8  1  0  0  0  0
  7  9  2  0  0  0  0
  9 10  1  0  0  0  0
  9 11  1  0  0  0  0
 11  1  2  0  0  0  0
 11 12  1  0  0  0  0
M  END
> <ChemID>
102947

> <source_casrn>
626-39-1

> <CAS>
626-39-1

> <SMILES>
Brc1cc(Br)cc(Br)c1

> <NAME>
1,3,5-TRIBROMOBENZENE

> <preferred_name>
1,3,5-Tribromobenzene

> <iupac>
1,3,5-tribromobenzene

> <MPID>
21932

> <dsstox_substance_id>
DTXSID3052307

> <Canonical_QSARr>
Brc1cc(Br)cc(Br)c1

> <InChI_Code_QSARr>
InChI=1S/C6H3Br3/c7-4-1-5(8)3-6(9)2-4/h1-3H

> <InChI Key_QSARr>
YWDUZLFWHVQCHY-UHFFFAOYSA-N

> <Salt_Solvent>
?

> <BP>
271.0

$$$$
102951
  -INDIGO-08031720192D

 20 20  0  0  0  0  0  0  0  0999 V2000
    2.7713   -1.6000    0.0000 N   0  0  0  0  0  0  0  0  0  0  0  0
    4.1569   -2.4000    0.0000 H   0  0  0  0  0  0  0  0  0  0  0  0
    2.7713    0.0000    0.0000 C   0  0  0  0  0  0  0  0  0  0  0  0
    4.3470   -0.2778    0.0000 H   0  0  0  0  0  0  0  0  0  0  0  0
    3.3185    1.5035    0.0000 H   0  0  0  0  0  0  0  0  0  0  0  0
    1.3856    0.8000    0.0000 C   0  0  0  0  0  0  0  0  0  0  0  0
    2.4141    2.0257    0.0000 H   0  0  0  0  0  0  0  0  0  0  0  0
    0.3572    2.0257    0.0000 H   0  0  0  0  0  0  0  0  0  0  0  0
    0.0000    0.0000    0.0000 C   0  0  0  0  0  0  0  0  0  0  0  0
   -0.5472    1.5035    0.0000 H   0  0  0  0  0  0  0  0  0  0  0  0
   -1.5757    0.2778    0.0000 C   0  0  0  0  0  0  0  0  0  0  0  0
   -3.1514    0.5556    0.0000 H   0  0  0  0  0  0  0  0  0  0  0  0
   -2.1229    1.7814    0.0000 H   0  0  0  0  0  0  0  0  0  0  0  0
   -2.6041   -0.9478    0.0000 H   0  0  0  0  0  0  0  0  0  0  0  0
    0.0000   -1.6000    0.0000 C   0  0  0  0  0  0  0  0  0  0  0  0
   -1.5757   -1.3222    0.0000 H   0  0  0  0  0  0  0  0  0  0  0  0
   -0.5472   -3.1035    0.0000 H   0  0  0  0  0  0  0  0  0  0  0  0
    1.3856   -2.4000    0.0000 C   0  0  0  0  0  0  0  0  0  0  0  0
    0.3572   -3.6257    0.0000 H   0  0  0  0  0  0  0  0  0  0  0  0
    2.4141   -3.6257    0.0000 H   0  0  0  0  0  0  0  0  0  0  0  0
  1  2  1  0  0  0  0
  1  3  1  0  0  0  0
  3  4  1  0  0  0  0
  3  5  1  0  0  0  0
  3  6  1  0  0  0  0
  6  7  1  0  0  0  0
  6  8  1  0  0  0  0
  6  9  1  0  0  0  0
  9 10  1  0  0  0  0
  9 11  1  0  0  0  0
 11 12  1  0  0  0  0
 11 13  1  0  0  0  0
 11 14  1  0  0  0  0
  9 15  1  0  0  0  0
 15 16  1  0  0  0  0
 15 17  1  0  0  0  0
 15 18  1  0  0  0  0
 18  1  1  0  0  0  0
 18 19  1  0  0  0  0
 18 20  1  0  0  0  0
M  END
> <ChemID>
102951

> <source_casrn>
626-58-4

> <CAS>
626-58-4

> <SMILES>
CC1CCNCC1

> <NAME>
Piperidine, 4-methyl-

> <preferred_name>
Piperidine, 4-methyl-

> <iupac>
4-Methylpiperidine

> <MPID>
21936

> <dsstox_substance_id>
DTXSID8060820

> <Canonical_QSARr>
CC1CCNCC1

> <InChI_Code_QSARr>
InChI=1S/C6H13N/c1-6-2-4-7-5-3-6/h6-7H,2-5H2,1H3

> <InChI Key_QSARr>
UZOFELREXGAFOI-UHFFFAOYSA-N

> <Salt_Solvent>
?

> <BP>
130.0

$$$$
102955
  -INDIGO-08031720192D

 29 28  0  0  0  0  0  0  0  0999 V2000
    2.7714    0.0000    0.0000 C   0  0  0  0  0  0  0  0  0  0  0  0
    3.3835   -1.4782    0.0000 H   0  0  0  0  0  0  0  0  0  0  0  0
    2.1590   -1.4782    0.0000 H   0  0  0  0  0  0  0  0  0  0  0  0
    4.1568    0.8000    0.0000 C   0  0  0  0  0  0  0  0  0  0  0  0
    5.5425    0.0000    0.0000 O   0  0  0  0  0  0  0  0  0  0  0  0
    6.9282    0.8000    0.0000 C   0  0  0  0  0  0  0  0  0  0  0  0
    6.3159    2.2782    0.0000 H   0  0  0  0  0  0  0  0  0  0  0  0
    7.5404    2.2782    0.0000 H   0  0  0  0  0  0  0  0  0  0  0  0
    8.3139    0.0000    0.0000 C   0  0  0  0  0  0  0  0  0  0  0  0
    8.9261   -1.4782    0.0000 H   0  0  0  0  0  0  0  0  0  0  0  0
    7.7016   -1.4782    0.0000 H   0  0  0  0  0  0  0  0  0  0  0  0
    9.6994    0.8000    0.0000 C   0  0  0  0  0  0  0  0  0  0  0  0
   11.0851    1.6000    0.0000 H   0  0  0  0  0  0  0  0  0  0  0  0
   11.0851    0.0000    0.0000 H   0  0  0  0  0  0  0  0  0  0  0  0
    9.6994    2.4000    0.0000 H   0  0  0  0  0  0  0  0  0  0  0  0
    4.1568    2.4000    0.0000 O   0  0  0  0  0  0  0  0  0  0  0  0
    1.3857    0.8000    0.0000 C   0  0  0  0  0  0  0  0  0  0  0  0
    0.7733    2.2782    0.0000 H   0  0  0  0  0  0  0  0  0  0  0  0
    1.9980    2.2782    0.0000 H   0  0  0  0  0  0  0  0  0  0  0  0
   -0.0000    0.0000    0.0000 C   0  0  0  0  0  0  0  0  0  0  0  0
    0.6123   -1.4782    0.0000 H   0  0  0  0  0  0  0  0  0  0  0  0
   -0.6122   -1.4782    0.0000 H   0  0  0  0  0  0  0  0  0  0  0  0
   -1.3857    0.8000    0.0000 C   0  0  0  0  0  0  0  0  0  0  0  0
   -1.9979    2.2782    0.0000 H   0  0  0  0  0  0  0  0  0  0  0  0
   -0.7734    2.2782    0.0000 H   0  0  0  0  0  0  0  0  0  0  0  0
   -2.7712    0.0000    0.0000 C   0  0  0  0  0  0  0  0  0  0  0  0
   -4.1569   -0.8000    0.0000 H   0  0  0  0  0  0  0  0  0  0  0  0
   -4.1569    0.8000    0.0000 H   0  0  0  0  0  0  0  0  0  0  0  0
   -2.7712   -1.6000    0.0000 H   0  0  0  0  0  0  0  0  0  0  0  0
  1  2  1  0  0  0  0
  1  3  1  0  0  0  0
  1  4  1  0  0  0  0
  4  5  1  0  0  0  0
  5  6  1  0  0  0  0
  6  7  1  0  0  0  0
  6  8  1  0  0  0  0
  6  9  1  0  0  0  0
  9 10  1  0  0  0  0
  9 11  1  0  0  0  0
  9 12  1  0  0  0  0
 12 13  1  0  0  0  0
 12 14  1  0  0  0  0
 12 15  1  0  0  0  0
  4 16  2  0  0  0  0
  1 17  1  0  0  0  0
 17 18  1  0  0  0  0
 17 19  1  0  0  0  0
 17 20  1  0  0  0  0
 20 21  1  0  0  0  0
 20 22  1  0  0  0  0
 20 23  1  0  0  0  0
 23 24  1  0  0  0  0
 23 25  1  0  0  0  0
 23 26  1  0  0  0  0
 26 27  1  0  0  0  0
 26 28  1  0  0  0  0
 26 29  1  0  0  0  0
M  END
> <ChemID>
102955

> <source_casrn>
626-77-7

> <CAS>
626-77-7

> <SMILES>
CCCOC(=O)CCCCC

> <NAME>
PROPYL HEXANOATE

> <preferred_name>
Propyl hexanoate

> <iupac>
Propyl hexanoate

> <MPID>
21940

> <dsstox_substance_id>
DTXSID3060823

> <Canonical_QSARr>
CCCOC(=O)CCCCC

> <InChI_Code_QSARr>
InChI=1S/C9H18O2/c1-3-5-6-7-9(10)11-8-4-2/h3-8H2,1-2H3

> <InChI Key_QSARr>
HTUIWRWYYVBCFT-UHFFFAOYSA-N

> <Salt_Solvent>
?

> <BP>
187.0

$$$$
102959
  -INDIGO-08031720192D

 20 19  0  0  0  0  0  0  0  0999 V2000
    4.5105    1.6417    0.0000 Br  0  0  0  0  0  0  0  0  0  0  0  0
    4.2327    0.0660    0.0000 C   0  0  0  0  0  0  0  0  0  0  0  0
    5.7362    0.6132    0.0000 H   0  0  0  0  0  0  0  0  0  0  0  0
    5.4584   -0.9624    0.0000 H   0  0  0  0  0  0  0  0  0  0  0  0
    2.7291   -0.4813    0.0000 C   0  0  0  0  0  0  0  0  0  0  0  0
    3.0755   -2.0433    0.0000 H   0  0  0  0  0  0  0  0  0  0  0  0
    1.8695   -1.8307    0.0000 H   0  0  0  0  0  0  0  0  0  0  0  0
    1.5036    0.5472    0.0000 C   0  0  0  0  0  0  0  0  0  0  0  0
    1.1572    2.1093    0.0000 H   0  0  0  0  0  0  0  0  0  0  0  0
    2.3632    1.8967    0.0000 H   0  0  0  0  0  0  0  0  0  0  0  0
    0.0000    0.0000    0.0000 C   0  0  0  0  0  0  0  0  0  0  0  0
    0.8000   -1.3856    0.0000 H   0  0  0  0  0  0  0  0  0  0  0  0
   -1.3856   -0.8000    0.0000 C   0  0  0  0  0  0  0  0  0  0  0  0
   -2.7713   -1.6000    0.0000 H   0  0  0  0  0  0  0  0  0  0  0  0
   -1.3856   -2.4000    0.0000 H   0  0  0  0  0  0  0  0  0  0  0  0
   -2.7713    0.0000    0.0000 H   0  0  0  0  0  0  0  0  0  0  0  0
   -0.8000    1.3856    0.0000 C   0  0  0  0  0  0  0  0  0  0  0  0
   -1.6000    2.7713    0.0000 H   0  0  0  0  0  0  0  0  0  0  0  0
    0.0000    2.7713    0.0000 H   0  0  0  0  0  0  0  0  0  0  0  0
   -2.4000    1.3856    0.0000 H   0  0  0  0  0  0  0  0  0  0  0  0
  1  2  1  0  0  0  0
  2  3  1  0  0  0  0
  2  4  1  0  0  0  0
  2  5  1  0  0  0  0
  5  6  1  0  0  0  0
  5  7  1  0  0  0  0
  5  8  1  0  0  0  0
  8  9  1  0  0  0  0
  8 10  1  0  0  0  0
  8 11  1  0  0  0  0
 11 12  1  0  0  0  0
 11 13  1  0  0  0  0
 13 14  1  0  0  0  0
 13 15  1  0  0  0  0
 13 16  1  0  0  0  0
 11 17  1  0  0  0  0
 17 18  1  0  0  0  0
 17 19  1  0  0  0  0
 17 20  1  0  0  0  0
M  END
> <ChemID>
102959

> <source_casrn>
626-88-0

> <CAS>
626-88-0

> <SMILES>
CC(C)CCCBr

> <NAME>
Pentane, 1-bromo-4-methyl-

> <preferred_name>
Pentane, 1-bromo-4-methyl-

> <iupac>
1-Bromo-4-methylpentane

> <MPID>
21944

> <dsstox_substance_id>
DTXSID8060826

> <Canonical_QSARr>
CC(C)CCCBr

> <InChI_Code_QSARr>
InChI=1S/C6H13Br/c1-6(2)4-3-5-7/h6H,3-5H2,1-2H3

> <InChI Key_QSARr>
XZKFBZOAIGFZSU-UHFFFAOYSA-N

> <Salt_Solvent>
?

> <BP>
145.0

$$$$
102963
  -INDIGO-08031720192D

 17 16  0  0  0  0  0  0  0  0999 V2000
   -1.9979    2.2782    0.0000 Cl  0  0  0  0  0  0  0  0  0  0  0  0
   -1.3856    0.8000    0.0000 C   0  0  0  0  0  0  0  0  0  0  0  0
   -0.7734    2.2782    0.0000 H   0  0  0  0  0  0  0  0  0  0  0  0
    0.0001   -0.0000    0.0000 C   0  0  0  0  0  0  0  0  0  0  0  0
   -0.6123   -1.4782    0.0000 H   0  0  0  0  0  0  0  0  0  0  0  0
    0.6123   -1.4782    0.0000 H   0  0  0  0  0  0  0  0  0  0  0  0
    1.3856    0.8000    0.0000 C   0  0  0  0  0  0  0  0  0  0  0  0
    1.9979    2.2782    0.0000 H   0  0  0  0  0  0  0  0  0  0  0  0
    0.7734    2.2782    0.0000 H   0  0  0  0  0  0  0  0  0  0  0  0
    2.7713   -0.0000    0.0000 C   0  0  0  0  0  0  0  0  0  0  0  0
    4.1569   -0.8000    0.0000 H   0  0  0  0  0  0  0  0  0  0  0  0
    4.1569    0.8000    0.0000 H   0  0  0  0  0  0  0  0  0  0  0  0
    2.7713   -1.6000    0.0000 Cl  0  0  0  0  0  0  0  0  0  0  0  0
   -2.7712   -0.0000    0.0000 C   0  0  0  0  0  0  0  0  0  0  0  0
   -4.1569   -0.8000    0.0000 H   0  0  0  0  0  0  0  0  0  0  0  0
   -4.1569    0.8000    0.0000 H   0  0  0  0  0  0  0  0  0  0  0  0
   -2.7713   -1.6000    0.0000 H   0  0  0  0  0  0  0  0  0  0  0  0
  1  2  1  0  0  0  0
  2  3  1  0  0  0  0
  2  4  1  0  0  0  0
  4  5  1  0  0  0  0
  4  6  1  0  0  0  0
  4  7  1  0  0  0  0
  7  8  1  0  0  0  0
  7  9  1  0  0  0  0
  7 10  1  0  0  0  0
 10 11  1  0  0  0  0
 10 12  1  0  0  0  0
 10 13  1  0  0  0  0
  2 14  1  0  0  0  0
 14 15  1  0  0  0  0
 14 16  1  0  0  0  0
 14 17  1  0  0  0  0
M  END
> <ChemID>
102963

> <source_casrn>
626-92-6

> <CAS>
NOCAS_870725

> <SMILES>
CC(Cl)CCCCl

> <NAME>
PENTANE, 1,4-DICHLORO-

> <preferred_name>
1,4-Dichloropentane

> <iupac>
C5H10Cl2

> <MPID>
21948

> <dsstox_substance_id>
DTXSID00870725

> <Canonical_QSARr>
CC(Cl)CCCCl

> <InChI_Code_QSARr>
InChI=1S/C5H10Cl2/c1-5(7)3-2-4-6/h5H,2-4H2,1H3

> <InChI Key_QSARr>
IJZUPZAYWWVHIO-UHFFFAOYSA-N

> <Salt_Solvent>
?

> <BP>
162.0

$$$$
102967
  -INDIGO-08031720192D

 18 17  0  0  0  0  0  0  0  0999 V2000
    1.3857    0.8000    0.0000 C   0  0  0  0  0  0  0  0  0  0  0  0
    1.9980    2.2782    0.0000 H   0  0  0  0  0  0  0  0  0  0  0  0
    0.7734    2.2782    0.0000 H   0  0  0  0  0  0  0  0  0  0  0  0
    2.7713    0.0000    0.0000 C   0  0  0  0  0  0  0  0  0  0  0  0
    4.1569    0.8000    0.0000 N   0  0  0  0  0  0  0  0  0  0  0  0
    5.5426    0.0000    0.0000 H   0  0  0  0  0  0  0  0  0  0  0  0
    4.1569    2.4000    0.0000 H   0  0  0  0  0  0  0  0  0  0  0  0
    2.7713   -1.6000    0.0000 O   0  0  0  0  0  0  0  0  0  0  0  0
   -0.0001    0.0000    0.0000 C   0  0  0  0  0  0  0  0  0  0  0  0
   -0.6124   -1.4782    0.0000 H   0  0  0  0  0  0  0  0  0  0  0  0
    0.6122   -1.4782    0.0000 H   0  0  0  0  0  0  0  0  0  0  0  0
   -1.3857    0.8000    0.0000 C   0  0  0  0  0  0  0  0  0  0  0  0
   -0.7734    2.2782    0.0000 H   0  0  0  0  0  0  0  0  0  0  0  0
   -1.9980    2.2782    0.0000 H   0  0  0  0  0  0  0  0  0  0  0  0
   -2.7713    0.0000    0.0000 C   0  0  0  0  0  0  0  0  0  0  0  0
   -4.1569   -0.8000    0.0000 H   0  0  0  0  0  0  0  0  0  0  0  0
   -4.1569    0.8000    0.0000 H   0  0  0  0  0  0  0  0  0  0  0  0
   -2.7713   -1.6000    0.0000 H   0  0  0  0  0  0  0  0  0  0  0  0
  1  2  1  0  0  0  0
  1  3  1  0  0  0  0
  1  4  1  0  0  0  0
  4  5  1  0  0  0  0
  5  6  1  0  0  0  0
  5  7  1  0  0  0  0
  4  8  2  0  0  0  0
  1  9  1  0  0  0  0
  9 10  1  0  0  0  0
  9 11  1  0  0  0  0
  9 12  1  0  0  0  0
 12 13  1  0  0  0  0
 12 14  1  0  0  0  0
 12 15  1  0  0  0  0
 15 16  1  0  0  0  0
 15 17  1  0  0  0  0
 15 18  1  0  0  0  0
M  END
> <ChemID>
102967

> <source_casrn>
626-97-1

> <CAS>
626-97-1

> <SMILES>
CCCCC(N)=O

> <NAME>
Pentanamide

> <preferred_name>
Pentanamide

> <iupac>
Pentanamide

> <MPID>
21952

> <dsstox_substance_id>
DTXSID3060827

> <Canonical_QSARr>
CCCCC(N)=O

> <InChI_Code_QSARr>
InChI=1S/C5H11NO/c1-2-3-4-5(6)7/h2-4H2,1H3,(H2,6,7)

> <InChI Key_QSARr>
IPWFJLQDVFKJDU-UHFFFAOYSA-N

> <Salt_Solvent>
?

> <BP>
225.0

$$$$
102971
  -INDIGO-08031720192D

 21 20  0  0  0  0  0  0  0  0999 V2000
   -1.2256   -1.0284    0.0000 O   0  0  0  0  0  0  0  0  0  0  0  0
    0.0001   -0.0000    0.0000 C   0  0  0  0  0  0  0  0  0  0  0  0
    1.3856    0.8000    0.0000 H   0  0  0  0  0  0  0  0  0  0  0  0
   -0.2778    1.5757    0.0000 C   0  0  0  0  0  0  0  0  0  0  0  0
   -0.5556    3.1514    0.0000 H   0  0  0  0  0  0  0  0  0  0  0  0
   -1.7813    2.1229    0.0000 H   0  0  0  0  0  0  0  0  0  0  0  0
    0.9479    2.6041    0.0000 H   0  0  0  0  0  0  0  0  0  0  0  0
    0.8000   -1.3857    0.0000 C   0  0  0  0  0  0  0  0  0  0  0  0
    1.6000   -2.7713    0.0000 H   0  0  0  0  0  0  0  0  0  0  0  0
    2.4000   -1.3857    0.0000 H   0  0  0  0  0  0  0  0  0  0  0  0
    0.0001   -2.7713    0.0000 H   0  0  0  0  0  0  0  0  0  0  0  0
   -2.7291   -0.4812    0.0000 C   0  0  0  0  0  0  0  0  0  0  0  0
   -3.5888    0.8682    0.0000 H   0  0  0  0  0  0  0  0  0  0  0  0
   -2.1169    0.9970    0.0000 H   0  0  0  0  0  0  0  0  0  0  0  0
   -3.9548   -1.5097    0.0000 C   0  0  0  0  0  0  0  0  0  0  0  0
   -3.0951   -2.8591    0.0000 H   0  0  0  0  0  0  0  0  0  0  0  0
   -4.3011   -3.0718    0.0000 H   0  0  0  0  0  0  0  0  0  0  0  0
   -5.4583   -0.9624    0.0000 C   0  0  0  0  0  0  0  0  0  0  0  0
   -6.9619   -0.4152    0.0000 H   0  0  0  0  0  0  0  0  0  0  0  0
   -6.6840   -1.9909    0.0000 H   0  0  0  0  0  0  0  0  0  0  0  0
   -5.7362    0.6132    0.0000 H   0  0  0  0  0  0  0  0  0  0  0  0
  1  2  1  0  0  0  0
  2  3  1  0  0  0  0
  2  4  1  0  0  0  0
  4  5  1  0  0  0  0
  4  6  1  0  0  0  0
  4  7  1  0  0  0  0
  2  8  1  0  0  0  0
  8  9  1  0  0  0  0
  8 10  1  0  0  0  0
  8 11  1  0  0  0  0
  1 12  1  0  0  0  0
 12 13  1  0  0  0  0
 12 14  1  0  0  0  0
 12 15  1  0  0  0  0
 15 16  1  0  0  0  0
 15 17  1  0  0  0  0
 15 18  1  0  0  0  0
 18 19  1  0  0  0  0
 18 20  1  0  0  0  0
 18 21  1  0  0  0  0
M  END
> <ChemID>
102971

> <source_casrn>
627-08-7

> <CAS>
627-08-7

> <SMILES>
CCCOC(C)C

> <NAME>
PROPYL ISOPROPYL ETHER

> <preferred_name>
Propane, 1-(1-methylethoxy)-

> <iupac>
2-propoxypropane

> <MPID>
21956

> <dsstox_substance_id>
DTXSID7060831

> <Canonical_QSARr>
CCCOC(C)C

> <InChI_Code_QSARr>
InChI=1S/C6H14O/c1-4-5-7-6(2)3/h6H,4-5H2,1-3H3

> <InChI Key_QSARr>
JIEJJGMNDWIGBJ-UHFFFAOYSA-N

> <Salt_Solvent>
?

> <BP>
83.0

$$$$
102975
  -INDIGO-08031720192D

 13 12  0  0  0  0  0  0  0  0999 V2000
   -1.3857   -0.8000    0.0000 C   0  0  0  0  0  0  0  0  0  0  0  0
   -0.7733   -2.2782    0.0000 H   0  0  0  0  0  0  0  0  0  0  0  0
   -1.9979   -2.2782    0.0000 H   0  0  0  0  0  0  0  0  0  0  0  0
    0.0000    0.0000    0.0000 C   0  0  0  0  0  0  0  0  0  0  0  0
   -0.6122    1.4782    0.0000 H   0  0  0  0  0  0  0  0  0  0  0  0
    0.6122    1.4782    0.0000 H   0  0  0  0  0  0  0  0  0  0  0  0
    1.3856   -0.8000    0.0000 C   0  0  0  0  0  0  0  0  0  0  0  0
    2.7713   -1.6000    0.0000 H   0  0  0  0  0  0  0  0  0  0  0  0
    2.7713    0.0000    0.0000 H   0  0  0  0  0  0  0  0  0  0  0  0
    1.3856   -2.4000    0.0000 H   0  0  0  0  0  0  0  0  0  0  0  0
   -2.7713    0.0000    0.0000 C   0  0  0  0  0  0  0  0  0  0  0  0
   -4.1569    0.8000    0.0000 C   0  0  0  0  0  0  0  0  0  0  0  0
   -5.5426    1.6000    0.0000 H   0  0  0  0  0  0  0  0  0  0  0  0
  1  2  1  0  0  0  0
  1  3  1  0  0  0  0
  1  4  1  0  0  0  0
  4  5  1  0  0  0  0
  4  6  1  0  0  0  0
  4  7  1  0  0  0  0
  7  8  1  0  0  0  0
  7  9  1  0  0  0  0
  7 10  1  0  0  0  0
  1 11  1  0  0  0  0
 11 12  3  0  0  0  0
 12 13  1  0  0  0  0
M  END
> <ChemID>
102975

> <source_casrn>
627-19-0

> <CAS>
627-19-0

> <SMILES>
CCCC#C

> <NAME>
1-PENTYNE

> <preferred_name>
1-Pentyne

> <iupac>
pent-1-yne

> <MPID>
21960

> <dsstox_substance_id>
DTXSID7060835

> <Canonical_QSARr>
CCCC#C

> <InChI_Code_QSARr>
InChI=1S/C5H8/c1-3-5-4-2/h1H,4-5H2,2H3

> <InChI Key_QSARr>
IBXNCJKFFQIKKY-UHFFFAOYSA-N

> <Salt_Solvent>
?

> <BP>
40.1

$$$$
102981
  -INDIGO-08031720192D

 12 11  0  0  0  0  0  0  0  0999 V2000
    0.0000    0.0000    0.0000 C   0  0  0  0  0  0  0  0  0  0  0  0
    0.6123   -1.4782    0.0000 H   0  0  0  0  0  0  0  0  0  0  0  0
   -0.6123   -1.4782    0.0000 H   0  0  0  0  0  0  0  0  0  0  0  0
   -1.3856    0.8000    0.0000 C   0  0  0  0  0  0  0  0  0  0  0  0
   -2.7713    1.6000    0.0000 H   0  0  0  0  0  0  0  0  0  0  0  0
   -2.7713    0.0000    0.0000 H   0  0  0  0  0  0  0  0  0  0  0  0
   -1.3856    2.4000    0.0000 Cl  0  0  0  0  0  0  0  0  0  0  0  0
    1.3856    0.8000    0.0000 C   0  0  0  0  0  0  0  0  0  0  0  0
    0.7733    2.2782    0.0000 H   0  0  0  0  0  0  0  0  0  0  0  0
    1.9980    2.2782    0.0000 H   0  0  0  0  0  0  0  0  0  0  0  0
    2.7713    0.0000    0.0000 O   0  0  0  0  0  0  0  0  0  0  0  0
    4.1569    0.8000    0.0000 H   0  0  0  0  0  0  0  0  0  0  0  0
  1  2  1  0  0  0  0
  1  3  1  0  0  0  0
  1  4  1  0  0  0  0
  4  5  1  0  0  0  0
  4  6  1  0  0  0  0
  4  7  1  0  0  0  0
  1  8  1  0  0  0  0
  8  9  1  0  0  0  0
  8 10  1  0  0  0  0
  8 11  1  0  0  0  0
 11 12  1  0  0  0  0
M  END
> <ChemID>
102981

> <source_casrn>
627-30-5

> <CAS>
627-30-5

> <SMILES>
OCCCCl

> <NAME>
3-CHLORO-1-PROPANOL

> <preferred_name>
3-Chloro-1-propanol

> <iupac>
3-chloropropan-1-ol

> <MPID>
21965

> <dsstox_substance_id>
DTXSID9024809

> <Canonical_QSARr>
OCCCCl

> <InChI_Code_QSARr>
InChI=1S/C3H7ClO/c4-2-1-3-5/h5H,1-3H2

> <InChI Key_QSARr>
LAMUXTNQCICZQX-UHFFFAOYSA-N

> <Salt_Solvent>
?

> <BP>
165.0

$$$$
102985
  -INDIGO-08031720192D

 13 12  0  0  0  0  0  0  0  0999 V2000
   -1.3856    0.8000    0.0000 O   0  0  0  0  0  0  0  0  0  0  0  0
    0.0001    0.0000    0.0000 C   0  0  0  0  0  0  0  0  0  0  0  0
    0.6123   -1.4782    0.0000 H   0  0  0  0  0  0  0  0  0  0  0  0
   -0.6123   -1.4782    0.0000 H   0  0  0  0  0  0  0  0  0  0  0  0
    1.3856    0.8000    0.0000 C   0  0  0  0  0  0  0  0  0  0  0  0
    1.3856    2.4000    0.0000 H   0  0  0  0  0  0  0  0  0  0  0  0
    2.7713    0.0000    0.0000 C   0  0  0  0  0  0  0  0  0  0  0  0
    4.1569    0.8000    0.0000 H   0  0  0  0  0  0  0  0  0  0  0  0
    2.7713   -1.6000    0.0000 H   0  0  0  0  0  0  0  0  0  0  0  0
   -2.7713    0.0000    0.0000 C   0  0  0  0  0  0  0  0  0  0  0  0
   -4.1569   -0.8000    0.0000 H   0  0  0  0  0  0  0  0  0  0  0  0
   -4.1569    0.8000    0.0000 H   0  0  0  0  0  0  0  0  0  0  0  0
   -2.7713   -1.6000    0.0000 H   0  0  0  0  0  0  0  0  0  0  0  0
  1  2  1  0  0  0  0
  2  3  1  0  0  0  0
  2  4  1  0  0  0  0
  2  5  1  0  0  0  0
  5  6  1  0  0  0  0
  5  7  2  0  0  0  0
  7  8  1  0  0  0  0
  7  9  1  0  0  0  0
  1 10  1  0  0  0  0
 10 11  1  0  0  0  0
 10 12  1  0  0  0  0
 10 13  1  0  0  0  0
M  END
> <ChemID>
102985

> <source_casrn>
627-40-7

> <CAS>
627-40-7

> <SMILES>
COCC=C

> <NAME>
1-Propene, 3-methoxy-

> <preferred_name>
1-Propene, 3-methoxy-

> <iupac>
3-methoxyprop-1-ene

> <MPID>
21969

> <dsstox_substance_id>
DTXSID7060839

> <Canonical_QSARr>
COCC=C

> <InChI_Code_QSARr>
InChI=1S/C4H8O/c1-3-4-5-2/h3H,1,4H2,2H3

> <InChI Key_QSARr>
FASUFOTUSHAIHG-UHFFFAOYSA-N

> <Salt_Solvent>
?

> <BP>
44.0

$$$$
102990
  -INDIGO-08031720192D

 11 10  0  0  0  0  0  0  0  0999 V2000
    1.3857    0.8000    0.0000 S   0  0  0  0  0  0  0  0  0  0  0  0
    2.7713    0.0000    0.0000 C   0  0  0  0  0  0  0  0  0  0  0  0
    2.7713   -1.6000    0.0000 H   0  0  0  0  0  0  0  0  0  0  0  0
    4.1570    0.8000    0.0000 C   0  0  0  0  0  0  0  0  0  0  0  0
    5.5426    0.0000    0.0000 H   0  0  0  0  0  0  0  0  0  0  0  0
    4.1570    2.4000    0.0000 H   0  0  0  0  0  0  0  0  0  0  0  0
    0.0000    0.0000    0.0000 C   0  0  0  0  0  0  0  0  0  0  0  0
    0.0000   -1.6000    0.0000 H   0  0  0  0  0  0  0  0  0  0  0  0
   -1.3857    0.8000    0.0000 C   0  0  0  0  0  0  0  0  0  0  0  0
   -2.7713    0.0000    0.0000 H   0  0  0  0  0  0  0  0  0  0  0  0
   -1.3857    2.4000    0.0000 H   0  0  0  0  0  0  0  0  0  0  0  0
  1  2  1  0  0  0  0
  2  3  1  0  0  0  0
  2  4  2  0  0  0  0
  4  5  1  0  0  0  0
  4  6  1  0  0  0  0
  1  7  1  0  0  0  0
  7  8  1  0  0  0  0
  7  9  2  0  0  0  0
  9 10  1  0  0  0  0
  9 11  1  0  0  0  0
M  END
> <ChemID>
102990

> <source_casrn>
627-51-0

> <CAS>
627-51-0

> <SMILES>
C=CSC=C

> <NAME>
1,1'-THIOBISETHENE

> <preferred_name>
Divinyl sulfide

> <iupac>
ethenylsulfanylethene

> <MPID>
21973

> <dsstox_substance_id>
DTXSID10211766

> <Canonical_QSARr>
C=CSC=C

> <InChI_Code_QSARr>
InChI=1S/C4H6S/c1-3-5-4-2/h3-4H,1-2H2

> <InChI Key_QSARr>
UIYCHXAGWOYNNA-UHFFFAOYSA-N

> <Salt_Solvent>
?

> <BP>
84.0

$$$$
102995
  -INDIGO-08031720192D

 19 18  0  0  0  0  0  0  0  0999 V2000
    4.5105    1.6417    0.0000 O   0  0  0  0  0  0  0  0  0  0  0  0
    4.2327    0.0660    0.0000 N   0  0  0  0  0  0  0  0  0  0  0  0
    5.4584   -0.9624    0.0000 O   0  0  0  0  0  0  0  0  0  0  0  0
    2.7292   -0.4813    0.0000 C   0  0  0  0  0  0  0  0  0  0  0  0
    3.0754   -2.0433    0.0000 H   0  0  0  0  0  0  0  0  0  0  0  0
    1.8695   -1.8307    0.0000 H   0  0  0  0  0  0  0  0  0  0  0  0
    1.5035    0.5472    0.0000 C   0  0  0  0  0  0  0  0  0  0  0  0
    1.1572    2.1093    0.0000 H   0  0  0  0  0  0  0  0  0  0  0  0
    2.3632    1.8967    0.0000 H   0  0  0  0  0  0  0  0  0  0  0  0
    0.0001    0.0000    0.0000 C   0  0  0  0  0  0  0  0  0  0  0  0
    0.8000   -1.3856    0.0000 H   0  0  0  0  0  0  0  0  0  0  0  0
   -1.3857   -0.8000    0.0000 C   0  0  0  0  0  0  0  0  0  0  0  0
   -2.7713   -1.6000    0.0000 H   0  0  0  0  0  0  0  0  0  0  0  0
   -1.3857   -2.4000    0.0000 H   0  0  0  0  0  0  0  0  0  0  0  0
   -2.7713    0.0000    0.0000 H   0  0  0  0  0  0  0  0  0  0  0  0
   -0.8000    1.3856    0.0000 C   0  0  0  0  0  0  0  0  0  0  0  0
   -1.6000    2.7713    0.0000 H   0  0  0  0  0  0  0  0  0  0  0  0
    0.0001    2.7713    0.0000 H   0  0  0  0  0  0  0  0  0  0  0  0
   -2.4000    1.3856    0.0000 H   0  0  0  0  0  0  0  0  0  0  0  0
  1  2  1  0  0  0  0
  2  3  2  0  0  0  0
  2  4  1  0  0  0  0
  4  5  1  0  0  0  0
  4  6  1  0  0  0  0
  4  7  1  0  0  0  0
  7  8  1  0  0  0  0
  7  9  1  0  0  0  0
  7 10  1  0  0  0  0
 10 11  1  0  0  0  0
 10 12  1  0  0  0  0
 12 13  1  0  0  0  0
 12 14  1  0  0  0  0
 12 15  1  0  0  0  0
 10 16  1  0  0  0  0
 16 17  1  0  0  0  0
 16 18  1  0  0  0  0
 16 19  1  0  0  0  0
M  CHG  2   1  -1   2   1
M  END
> <ChemID>
102995

> <source_casrn>
627-67-8

> <CAS>
627-67-8

> <SMILES>
CC(C)CC[N+]([O-])=O

> <NAME>
2-Methyl-4-nitrobutane

> <preferred_name>
3-Methyl-1-nitrobutane

> <iupac>
3-Methyl-1-nitrobutane

> <MPID>
21977

> <dsstox_substance_id>
DTXSID90211769

> <Canonical_QSARr>
CC(C)CC[N+]([O-])=O

> <InChI_Code_QSARr>
InChI=1S/C5H11NO2/c1-5(2)3-4-6(7)8/h5H,3-4H2,1-2H3

> <InChI Key_QSARr>
FEJLPMVSVDSKHJ-UHFFFAOYSA-N

> <Salt_Solvent>
?

> <BP>
163.5

$$$$
102999
  -INDIGO-08031720192D

 24 23  0  0  0  0  0  0  0  0999 V2000
    6.9618   -0.4153    0.0000 O   0  0  0  0  0  0  0  0  0  0  0  0
    8.1875   -1.4437    0.0000 H   0  0  0  0  0  0  0  0  0  0  0  0
    5.4583   -0.9625    0.0000 C   0  0  0  0  0  0  0  0  0  0  0  0
    5.8046   -2.5245    0.0000 H   0  0  0  0  0  0  0  0  0  0  0  0
    4.5986   -2.3119    0.0000 H   0  0  0  0  0  0  0  0  0  0  0  0
    4.2328    0.0660    0.0000 C   0  0  0  0  0  0  0  0  0  0  0  0
    3.8865    1.6281    0.0000 H   0  0  0  0  0  0  0  0  0  0  0  0
    5.0924    1.4155    0.0000 H   0  0  0  0  0  0  0  0  0  0  0  0
    2.7291   -0.4812    0.0000 C   0  0  0  0  0  0  0  0  0  0  0  0
    3.0754   -2.0433    0.0000 H   0  0  0  0  0  0  0  0  0  0  0  0
    1.8694   -1.8306    0.0000 H   0  0  0  0  0  0  0  0  0  0  0  0
    1.5036    0.5473    0.0000 C   0  0  0  0  0  0  0  0  0  0  0  0
    1.1572    2.1093    0.0000 H   0  0  0  0  0  0  0  0  0  0  0  0
    2.3632    1.8967    0.0000 H   0  0  0  0  0  0  0  0  0  0  0  0
    0.0001    0.0000    0.0000 C   0  0  0  0  0  0  0  0  0  0  0  0
    0.8001   -1.3856    0.0000 H   0  0  0  0  0  0  0  0  0  0  0  0
   -1.3857   -0.8000    0.0000 C   0  0  0  0  0  0  0  0  0  0  0  0
   -2.7713   -1.6000    0.0000 H   0  0  0  0  0  0  0  0  0  0  0  0
   -1.3857   -2.4000    0.0000 H   0  0  0  0  0  0  0  0  0  0  0  0
   -2.7713    0.0000    0.0000 H   0  0  0  0  0  0  0  0  0  0  0  0
   -0.8001    1.3857    0.0000 C   0  0  0  0  0  0  0  0  0  0  0  0
   -1.6001    2.7713    0.0000 H   0  0  0  0  0  0  0  0  0  0  0  0
    0.0001    2.7713    0.0000 H   0  0  0  0  0  0  0  0  0  0  0  0
   -2.4001    1.3857    0.0000 H   0  0  0  0  0  0  0  0  0  0  0  0
  1  2  1  0  0  0  0
  1  3  1  0  0  0  0
  3  4  1  0  0  0  0
  3  5  1  0  0  0  0
  3  6  1  0  0  0  0
  6  7  1  0  0  0  0
  6  8  1  0  0  0  0
  6  9  1  0  0  0  0
  9 10  1  0  0  0  0
  9 11  1  0  0  0  0
  9 12  1  0  0  0  0
 12 13  1  0  0  0  0
 12 14  1  0  0  0  0
 12 15  1  0  0  0  0
 15 16  1  0  0  0  0
 15 17  1  0  0  0  0
 17 18  1  0  0  0  0
 17 19  1  0  0  0  0
 17 20  1  0  0  0  0
 15 21  1  0  0  0  0
 21 22  1  0  0  0  0
 21 23  1  0  0  0  0
 21 24  1  0  0  0  0
M  END
> <ChemID>
102999

> <source_casrn>
627-98-5

> <CAS>
51774-11-9

> <SMILES>
CC(C)CCCCO

> <NAME>
1-HEXANOL, 5-METHYL-

> <preferred_name>
Isoheptanol

> <iupac>
5-Methylhexan-1-ol

> <MPID>
21981

> <dsstox_substance_id>
DTXSID4075326

> <Canonical_QSARr>
CC(C)CCCCO

> <InChI_Code_QSARr>
InChI=1S/C7H16O/c1-7(2)5-3-4-6-8/h7-8H,3-6H2,1-2H3

> <InChI Key_QSARr>
ZVHAANQOQZVVFD-UHFFFAOYSA-N

> <Salt_Solvent>
?

> <BP>
170.0

$$$$
103004
  -INDIGO-08031720192D

 12 11  0  0  0  0  0  0  0  0999 V2000
    1.5999   -0.0000    0.0000 C   0  0  0  0  0  0  0  0  0  0  0  0
    3.2000   -0.0000    0.0000 C   0  0  0  0  0  0  0  0  0  0  0  0
    4.8000   -0.0000    0.0000 H   0  0  0  0  0  0  0  0  0  0  0  0
   -0.0000   -0.0000    0.0000 C   0  0  0  0  0  0  0  0  0  0  0  0
   -0.2089    1.5863    0.0000 H   0  0  0  0  0  0  0  0  0  0  0  0
   -1.2694    0.9740    0.0000 H   0  0  0  0  0  0  0  0  0  0  0  0
   -0.8000   -1.3856    0.0000 C   0  0  0  0  0  0  0  0  0  0  0  0
   -0.5911   -2.9720    0.0000 H   0  0  0  0  0  0  0  0  0  0  0  0
    0.4694   -2.3597    0.0000 H   0  0  0  0  0  0  0  0  0  0  0  0
   -2.3999   -1.3856    0.0000 C   0  0  0  0  0  0  0  0  0  0  0  0
   -4.0000   -1.3856    0.0000 C   0  0  0  0  0  0  0  0  0  0  0  0
   -5.6000   -1.3856    0.0000 H   0  0  0  0  0  0  0  0  0  0  0  0
  1  2  3  0  0  0  0
  2  3  1  0  0  0  0
  1  4  1  0  0  0  0
  4  5  1  0  0  0  0
  4  6  1  0  0  0  0
  4  7  1  0  0  0  0
  7  8  1  0  0  0  0
  7  9  1  0  0  0  0
  7 10  1  0  0  0  0
 10 11  3  0  0  0  0
 11 12  1  0  0  0  0
M  END
> <ChemID>
103004

> <source_casrn>
628-16-0

> <CAS>
628-16-0

> <SMILES>
C#CCCC#C

> <NAME>
1,5-Hexadiyne

> <preferred_name>
1,5-Hexadiyne

> <iupac>
hexa-1,5-diyne

> <MPID>
21985

> <dsstox_substance_id>
DTXSID6060848

> <Canonical_QSARr>
C#CCCC#C

> <InChI_Code_QSARr>
InChI=1S/C6H6/c1-3-5-6-4-2/h1-2H,5-6H2

> <InChI Key_QSARr>
YFIBSNDOVCWPBL-UHFFFAOYSA-N

> <Salt_Solvent>
?

> <BP>
86.0

$$$$
103008
  -INDIGO-08031720192D

 18 17  0  0  0  0  0  0  0  0999 V2000
    0.0001    0.0000    0.0000 C   0  0  0  0  0  0  0  0  0  0  0  0
    0.6124   -1.4782    0.0000 H   0  0  0  0  0  0  0  0  0  0  0  0
   -0.6122   -1.4782    0.0000 H   0  0  0  0  0  0  0  0  0  0  0  0
   -1.3857    0.8000    0.0000 C   0  0  0  0  0  0  0  0  0  0  0  0
   -1.9980    2.2782    0.0000 H   0  0  0  0  0  0  0  0  0  0  0  0
   -0.7734    2.2782    0.0000 H   0  0  0  0  0  0  0  0  0  0  0  0
   -2.7713    0.0000    0.0000 S   0  0  0  0  0  0  0  0  0  0  0  0
   -4.1569    0.8000    0.0000 C   0  0  0  0  0  0  0  0  0  0  0  0
   -5.5426    1.6000    0.0000 H   0  0  0  0  0  0  0  0  0  0  0  0
   -5.5426    0.0000    0.0000 H   0  0  0  0  0  0  0  0  0  0  0  0
   -4.1569    2.4000    0.0000 H   0  0  0  0  0  0  0  0  0  0  0  0
    1.3857    0.8000    0.0000 C   0  0  0  0  0  0  0  0  0  0  0  0
    0.7734    2.2782    0.0000 H   0  0  0  0  0  0  0  0  0  0  0  0
    1.9980    2.2782    0.0000 H   0  0  0  0  0  0  0  0  0  0  0  0
    2.7713    0.0000    0.0000 C   0  0  0  0  0  0  0  0  0  0  0  0
    4.1569   -0.8000    0.0000 H   0  0  0  0  0  0  0  0  0  0  0  0
    4.1569    0.8000    0.0000 H   0  0  0  0  0  0  0  0  0  0  0  0
    2.7713   -1.6000    0.0000 H   0  0  0  0  0  0  0  0  0  0  0  0
  1  2  1  0  0  0  0
  1  3  1  0  0  0  0
  1  4  1  0  0  0  0
  4  5  1  0  0  0  0
  4  6  1  0  0  0  0
  4  7  1  0  0  0  0
  7  8  1  0  0  0  0
  8  9  1  0  0  0  0
  8 10  1  0  0  0  0
  8 11  1  0  0  0  0
  1 12  1  0  0  0  0
 12 13  1  0  0  0  0
 12 14  1  0  0  0  0
 12 15  1  0  0  0  0
 15 16  1  0  0  0  0
 15 17  1  0  0  0  0
 15 18  1  0  0  0  0
M  END
> <ChemID>
103008

> <source_casrn>
628-29-5

> <CAS>
628-29-5

> <SMILES>
CCCCSC

> <NAME>
2-THIAHEXANE

> <preferred_name>
Butane, 1-(methylthio)-

> <iupac>
1-methylsulfanylbutane

> <MPID>
21989

> <dsstox_substance_id>
DTXSID0060852

> <Canonical_QSARr>
CCCCSC

> <InChI_Code_QSARr>
InChI=1S/C5H12S/c1-3-4-5-6-2/h3-5H2,1-2H3

> <InChI Key_QSARr>
WCXXISMIJBRDQK-UHFFFAOYSA-N

> <Salt_Solvent>
?

> <BP>
123.5

$$$$
103012
  -INDIGO-08031720192D

 16 15  0  0  0  0  0  0  0  0999 V2000
    1.3856    0.8000    0.0000 O   0  0  0  0  0  0  0  0  0  0  0  0
    2.7713    0.0000    0.0000 O   0  0  0  0  0  0  0  0  0  0  0  0
    4.1570    0.8000    0.0000 C   0  0  0  0  0  0  0  0  0  0  0  0
    4.7693    2.2782    0.0000 H   0  0  0  0  0  0  0  0  0  0  0  0
    3.5447    2.2782    0.0000 H   0  0  0  0  0  0  0  0  0  0  0  0
    5.5426    0.0000    0.0000 C   0  0  0  0  0  0  0  0  0  0  0  0
    6.9282   -0.8000    0.0000 H   0  0  0  0  0  0  0  0  0  0  0  0
    6.9282    0.8000    0.0000 H   0  0  0  0  0  0  0  0  0  0  0  0
    5.5426   -1.6000    0.0000 H   0  0  0  0  0  0  0  0  0  0  0  0
   -0.0000    0.0000    0.0000 C   0  0  0  0  0  0  0  0  0  0  0  0
   -0.6123   -1.4782    0.0000 H   0  0  0  0  0  0  0  0  0  0  0  0
    0.6123   -1.4782    0.0000 H   0  0  0  0  0  0  0  0  0  0  0  0
   -1.3857    0.8000    0.0000 C   0  0  0  0  0  0  0  0  0  0  0  0
   -2.7713    1.6000    0.0000 H   0  0  0  0  0  0  0  0  0  0  0  0
   -2.7713    0.0000    0.0000 H   0  0  0  0  0  0  0  0  0  0  0  0
   -1.3857    2.4000    0.0000 H   0  0  0  0  0  0  0  0  0  0  0  0
  1  2  1  0  0  0  0
  2  3  1  0  0  0  0
  3  4  1  0  0  0  0
  3  5  1  0  0  0  0
  3  6  1  0  0  0  0
  6  7  1  0  0  0  0
  6  8  1  0  0  0  0
  6  9  1  0  0  0  0
  1 10  1  0  0  0  0
 10 11  1  0  0  0  0
 10 12  1  0  0  0  0
 10 13  1  0  0  0  0
 13 14  1  0  0  0  0
 13 15  1  0  0  0  0
 13 16  1  0  0  0  0
M  END
> <ChemID>
103012

> <source_casrn>
628-37-5

> <CAS>
628-37-5

> <SMILES>
CCOOCC

> <NAME>
PEROXIDE, DIETHYL

> <preferred_name>
Peroxide, diethyl

> <iupac>
ethylperoxyethane

> <MPID>
21993

> <dsstox_substance_id>
DTXSID8073922

> <Canonical_QSARr>
CCOOCC

> <InChI_Code_QSARr>
InChI=1S/C4H10O2/c1-3-5-6-4-2/h3-4H2,1-2H3

> <InChI Key_QSARr>
RHMZKSWPMYAOAZ-UHFFFAOYSA-N

> <Salt_Solvent>
?

> <BP>
65.0

$$$$
103016
  -INDIGO-08031720192D

 27 26  0  0  0  0  0  0  0  0999 V2000
    0.0001   -0.0000    0.0000 C   0  0  0  0  0  0  0  0  0  0  0  0
    0.8001    1.3857    0.0000 H   0  0  0  0  0  0  0  0  0  0  0  0
    1.5036   -0.5473    0.0000 C   0  0  0  0  0  0  0  0  0  0  0  0
    1.1572   -2.1093    0.0000 H   0  0  0  0  0  0  0  0  0  0  0  0
    2.3632   -1.8966    0.0000 H   0  0  0  0  0  0  0  0  0  0  0  0
    2.7291    0.4812    0.0000 O   0  0  0  0  0  0  0  0  0  0  0  0
    4.2328   -0.0660    0.0000 C   0  0  0  0  0  0  0  0  0  0  0  0
    3.8865   -1.6281    0.0000 H   0  0  0  0  0  0  0  0  0  0  0  0
    5.0924   -1.4154    0.0000 H   0  0  0  0  0  0  0  0  0  0  0  0
    5.4583    0.9625    0.0000 C   0  0  0  0  0  0  0  0  0  0  0  0
    6.4869   -0.2632    0.0000 H   0  0  0  0  0  0  0  0  0  0  0  0
    6.6841    1.9909    0.0000 C   0  0  0  0  0  0  0  0  0  0  0  0
    7.9096    3.0194    0.0000 H   0  0  0  0  0  0  0  0  0  0  0  0
    6.4061    3.5666    0.0000 H   0  0  0  0  0  0  0  0  0  0  0  0
    8.1875    1.4436    0.0000 H   0  0  0  0  0  0  0  0  0  0  0  0
    4.4299    2.1881    0.0000 C   0  0  0  0  0  0  0  0  0  0  0  0
    3.4015    3.4138    0.0000 H   0  0  0  0  0  0  0  0  0  0  0  0
    2.8542    1.9103    0.0000 H   0  0  0  0  0  0  0  0  0  0  0  0
    4.9771    3.6916    0.0000 H   0  0  0  0  0  0  0  0  0  0  0  0
   -1.3857    0.8000    0.0000 C   0  0  0  0  0  0  0  0  0  0  0  0
   -2.7713    1.6000    0.0000 H   0  0  0  0  0  0  0  0  0  0  0  0
   -1.3857    2.4000    0.0000 H   0  0  0  0  0  0  0  0  0  0  0  0
   -2.7713   -0.0000    0.0000 H   0  0  0  0  0  0  0  0  0  0  0  0
   -0.8001   -1.3856    0.0000 C   0  0  0  0  0  0  0  0  0  0  0  0
   -1.6001   -2.7713    0.0000 H   0  0  0  0  0  0  0  0  0  0  0  0
    0.0001   -2.7713    0.0000 H   0  0  0  0  0  0  0  0  0  0  0  0
   -2.4001   -1.3856    0.0000 H   0  0  0  0  0  0  0  0  0  0  0  0
  1  2  1  0  0  0  0
  1  3  1  0  0  0  0
  3  4  1  0  0  0  0
  3  5  1  0  0  0  0
  3  6  1  0  0  0  0
  6  7  1  0  0  0  0
  7  8  1  0  0  0  0
  7  9  1  0  0  0  0
  7 10  1  0  0  0  0
 10 11  1  0  0  0  0
 10 12  1  0  0  0  0
 12 13  1  0  0  0  0
 12 14  1  0  0  0  0
 12 15  1  0  0  0  0
 10 16  1  0  0  0  0
 16 17  1  0  0  0  0
 16 18  1  0  0  0  0
 16 19  1  0  0  0  0
  1 20  1  0  0  0  0
 20 21  1  0  0  0  0
 20 22  1  0  0  0  0
 20 23  1  0  0  0  0
  1 24  1  0  0  0  0
 24 25  1  0  0  0  0
 24 26  1  0  0  0  0
 24 27  1  0  0  0  0
M  END
> <ChemID>
103016

> <source_casrn>
628-55-7

> <CAS>
628-55-7

> <SMILES>
CC(C)COCC(C)C

> <NAME>
DI-ISOBUTYL ETHER

> <preferred_name>
Propane, 1,1'-oxybis[2-methyl-

> <iupac>
2-methyl-1-(2-methylpropoxy)propane

> <MPID>
21997

> <dsstox_substance_id>
DTXSID0060856

> <Canonical_QSARr>
CC(C)COCC(C)C

> <InChI_Code_QSARr>
InChI=1S/C8H18O/c1-7(2)5-9-6-8(3)4/h7-8H,5-6H2,1-4H3

> <InChI Key_QSARr>
SZNYYWIUQFZLLT-UHFFFAOYSA-N

> <Salt_Solvent>
?

> <BP>
123.0

$$$$
103020
  -INDIGO-08031720192D

 26 25  0  0  0  0  0  0  0  0999 V2000
   -1.3856   -0.8000    0.0000 C   0  0  0  0  0  0  0  0  0  0  0  0
   -0.7732   -2.2782    0.0000 H   0  0  0  0  0  0  0  0  0  0  0  0
   -1.9980   -2.2782    0.0000 H   0  0  0  0  0  0  0  0  0  0  0  0
    0.0001    0.0000    0.0000 C   0  0  0  0  0  0  0  0  0  0  0  0
   -0.6123    1.4782    0.0000 H   0  0  0  0  0  0  0  0  0  0  0  0
    0.6122    1.4782    0.0000 H   0  0  0  0  0  0  0  0  0  0  0  0
    1.3856   -0.8000    0.0000 C   0  0  0  0  0  0  0  0  0  0  0  0
    1.9979   -2.2782    0.0000 H   0  0  0  0  0  0  0  0  0  0  0  0
    0.7734   -2.2782    0.0000 H   0  0  0  0  0  0  0  0  0  0  0  0
    2.7713    0.0000    0.0000 C   0  0  0  0  0  0  0  0  0  0  0  0
    2.1589    1.4782    0.0000 H   0  0  0  0  0  0  0  0  0  0  0  0
    3.3836    1.4782    0.0000 H   0  0  0  0  0  0  0  0  0  0  0  0
    4.1570   -0.8000    0.0000 O   0  0  0  0  0  0  0  0  0  0  0  0
    5.5427    0.0000    0.0000 C   0  0  0  0  0  0  0  0  0  0  0  0
    5.5427    1.6000    0.0000 O   0  0  0  0  0  0  0  0  0  0  0  0
    6.9281   -0.8000    0.0000 C   0  0  0  0  0  0  0  0  0  0  0  0
    8.3138   -1.6000    0.0000 H   0  0  0  0  0  0  0  0  0  0  0  0
    8.3138    0.0000    0.0000 H   0  0  0  0  0  0  0  0  0  0  0  0
    6.9281   -2.4000    0.0000 H   0  0  0  0  0  0  0  0  0  0  0  0
   -2.7713    0.0000    0.0000 O   0  0  0  0  0  0  0  0  0  0  0  0
   -4.1570   -0.8000    0.0000 C   0  0  0  0  0  0  0  0  0  0  0  0
   -4.1570   -2.4000    0.0000 O   0  0  0  0  0  0  0  0  0  0  0  0
   -5.5425    0.0000    0.0000 C   0  0  0  0  0  0  0  0  0  0  0  0
   -6.9282    0.8000    0.0000 H   0  0  0  0  0  0  0  0  0  0  0  0
   -6.9282   -0.8000    0.0000 H   0  0  0  0  0  0  0  0  0  0  0  0
   -5.5425    1.6000    0.0000 H   0  0  0  0  0  0  0  0  0  0  0  0
  1  2  1  0  0  0  0
  1  3  1  0  0  0  0
  1  4  1  0  0  0  0
  4  5  1  0  0  0  0
  4  6  1  0  0  0  0
  4  7  1  0  0  0  0
  7  8  1  0  0  0  0
  7  9  1  0  0  0  0
  7 10  1  0  0  0  0
 10 11  1  0  0  0  0
 10 12  1  0  0  0  0
 10 13  1  0  0  0  0
 13 14  1  0  0  0  0
 14 15  2  0  0  0  0
 14 16  1  0  0  0  0
 16 17  1  0  0  0  0
 16 18  1  0  0  0  0
 16 19  1  0  0  0  0
  1 20  1  0  0  0  0
 20 21  1  0  0  0  0
 21 22  2  0  0  0  0
 21 23  1  0  0  0  0
 23 24  1  0  0  0  0
 23 25  1  0  0  0  0
 23 26  1  0  0  0  0
M  END
> <ChemID>
103020

> <source_casrn>
628-67-1

> <CAS>
628-67-1

> <SMILES>
CC(=O)OCCCCOC(C)=O

> <NAME>
1,4-Butanediol, diacetate

> <preferred_name>


> <iupac>


> <MPID>
22001

> <dsstox_substance_id>
DTXSID70879240

> <Canonical_QSARr>
CC(=O)OCCCCOC(C)=O

> <InChI_Code_QSARr>
InChI=1S/C8H14O4/c1-7(9)11-5-3-4-6-12-8(2)10/h3-6H2,1-2H3

> <InChI Key_QSARr>
XUKSWKGOQKREON-UHFFFAOYSA-N

> <Salt_Solvent>
?

> <BP>
229.0

$$$$
103024
  -INDIGO-08031720192D

 17 16  0  0  0  0  0  0  0  0999 V2000
    2.7713   -1.6000    0.0000 Cl  0  0  0  0  0  0  0  0  0  0  0  0
    2.7713   -0.0000    0.0000 C   0  0  0  0  0  0  0  0  0  0  0  0
    4.1569   -0.8000    0.0000 H   0  0  0  0  0  0  0  0  0  0  0  0
    4.1569    0.8000    0.0000 H   0  0  0  0  0  0  0  0  0  0  0  0
    1.3856    0.8000    0.0000 C   0  0  0  0  0  0  0  0  0  0  0  0
    0.7734    2.2782    0.0000 H   0  0  0  0  0  0  0  0  0  0  0  0
    1.9979    2.2782    0.0000 H   0  0  0  0  0  0  0  0  0  0  0  0
    0.0001   -0.0000    0.0000 C   0  0  0  0  0  0  0  0  0  0  0  0
    0.6123   -1.4782    0.0000 H   0  0  0  0  0  0  0  0  0  0  0  0
   -0.6123   -1.4782    0.0000 H   0  0  0  0  0  0  0  0  0  0  0  0
   -1.3856    0.8000    0.0000 C   0  0  0  0  0  0  0  0  0  0  0  0
   -1.9979    2.2782    0.0000 H   0  0  0  0  0  0  0  0  0  0  0  0
   -0.7734    2.2782    0.0000 H   0  0  0  0  0  0  0  0  0  0  0  0
   -2.7713   -0.0000    0.0000 C   0  0  0  0  0  0  0  0  0  0  0  0
   -4.1569   -0.8000    0.0000 H   0  0  0  0  0  0  0  0  0  0  0  0
   -4.1569    0.8000    0.0000 H   0  0  0  0  0  0  0  0  0  0  0  0
   -2.7713   -1.6000    0.0000 Cl  0  0  0  0  0  0  0  0  0  0  0  0
  1  2  1  0  0  0  0
  2  3  1  0  0  0  0
  2  4  1  0  0  0  0
  2  5  1  0  0  0  0
  5  6  1  0  0  0  0
  5  7  1  0  0  0  0
  5  8  1  0  0  0  0
  8  9  1  0  0  0  0
  8 10  1  0  0  0  0
  8 11  1  0  0  0  0
 11 12  1  0  0  0  0
 11 13  1  0  0  0  0
 11 14  1  0  0  0  0
 14 15  1  0  0  0  0
 14 16  1  0  0  0  0
 14 17  1  0  0  0  0
M  END
> <ChemID>
103024

> <source_casrn>
628-76-2

> <CAS>
628-76-2

> <SMILES>
ClCCCCCCl

> <NAME>
1,5-DICHLOROPENTANE

> <preferred_name>
1,5-Dichloropentane

> <iupac>
1,5-dichloropentane

> <MPID>
22005

> <dsstox_substance_id>
DTXSID2022094

> <Canonical_QSARr>
ClCCCCCCl

> <InChI_Code_QSARr>
InChI=1S/C5H10Cl2/c6-4-2-1-3-5-7/h1-5H2

> <InChI Key_QSARr>
LBKDGROORAKTLC-UHFFFAOYSA-N

> <Salt_Solvent>
?

> <BP>
179.0

$$$$
103029
  -INDIGO-08031720192D

 19 19  0  0  0  0  0  0  0  0999 V2000
    0.0000   -0.0000    0.0000 C   0  0  0  0  0  0  0  0  0  0  0  0
    1.5955    0.1196    0.0000 H   0  0  0  0  0  0  0  0  0  0  0  0
    0.4716   -1.5290    0.0000 H   0  0  0  0  0  0  0  0  0  0  0  0
    0.2385    1.5821    0.0000 C   0  0  0  0  0  0  0  0  0  0  0  0
    1.8067    1.2651    0.0000 H   0  0  0  0  0  0  0  0  0  0  0  0
    1.1398    2.9041    0.0000 H   0  0  0  0  0  0  0  0  0  0  0  0
   -0.8498    2.7550    0.0000 C   0  0  0  0  0  0  0  0  0  0  0  0
    0.3759    3.7835    0.0000 H   0  0  0  0  0  0  0  0  0  0  0  0
   -1.3214    4.2839    0.0000 H   0  0  0  0  0  0  0  0  0  0  0  0
   -2.4454    2.6354    0.0000 C   0  0  0  0  0  0  0  0  0  0  0  0
   -3.2454    4.0211    0.0000 H   0  0  0  0  0  0  0  0  0  0  0  0
   -3.3466    1.3134    0.0000 C   0  0  0  0  0  0  0  0  0  0  0  0
   -4.9288    1.5519    0.0000 H   0  0  0  0  0  0  0  0  0  0  0  0
   -2.8751   -0.2155    0.0000 C   0  0  0  0  0  0  0  0  0  0  0  0
   -4.4706   -0.3351    0.0000 H   0  0  0  0  0  0  0  0  0  0  0  0
   -3.3846   -1.7322    0.0000 H   0  0  0  0  0  0  0  0  0  0  0  0
   -1.3856   -0.8000    0.0000 C   0  0  0  0  0  0  0  0  0  0  0  0
   -2.2870   -2.1220    0.0000 H   0  0  0  0  0  0  0  0  0  0  0  0
   -0.5176   -2.1440    0.0000 H   0  0  0  0  0  0  0  0  0  0  0  0
  1  2  1  0  0  0  0
  1  3  1  0  0  0  0
  1  4  1  0  0  0  0
  4  5  1  0  0  0  0
  4  6  1  0  0  0  0
  4  7  1  0  0  0  0
  7  8  1  0  0  0  0
  7  9  1  0  0  0  0
  7 10  1  0  0  0  0
 10 11  1  0  0  0  0
 10 12  2  0  0  0  0
 12 13  1  0  0  0  0
 12 14  1  0  0  0  0
 14 15  1  0  0  0  0
 14 16  1  0  0  0  0
 14 17  1  0  0  0  0
 17  1  1  0  0  0  0
 17 18  1  0  0  0  0
 17 19  1  0  0  0  0
M  END
> <ChemID>
103029

> <source_casrn>
628-92-2

> <CAS>
628-92-2

> <SMILES>
C1CCCCC=C1

> <NAME>
CYCLOHEPTENE

> <preferred_name>
Cycloheptene

> <iupac>
Cycloheptene

> <MPID>
22009

> <dsstox_substance_id>
DTXSID4074560

> <Canonical_QSARr>
C1CCCCC=C1

> <InChI_Code_QSARr>
InChI=1S/C7H12/c1-2-4-6-7-5-3-1/h1-2H,3-7H2

> <InChI Key_QSARr>
ZXIJMRYMVAMXQP-UHFFFAOYSA-N

> <Salt_Solvent>
?

> <BP>
115.0

$$$$
103033
  -INDIGO-08031720192D

 20 19  0  0  0  0  0  0  0  0999 V2000
    2.7713    0.0000    0.0000 C   0  0  0  0  0  0  0  0  0  0  0  0
    4.1569    0.8000    0.0000 H   0  0  0  0  0  0  0  0  0  0  0  0
    4.1569   -0.8000    0.0000 H   0  0  0  0  0  0  0  0  0  0  0  0
    1.3857   -0.8000    0.0000 C   0  0  0  0  0  0  0  0  0  0  0  0
    0.7734   -2.2782    0.0000 H   0  0  0  0  0  0  0  0  0  0  0  0
    1.9980   -2.2782    0.0000 H   0  0  0  0  0  0  0  0  0  0  0  0
    0.0001    0.0000    0.0000 C   0  0  0  0  0  0  0  0  0  0  0  0
    0.6124    1.4782    0.0000 H   0  0  0  0  0  0  0  0  0  0  0  0
   -0.6122    1.4782    0.0000 H   0  0  0  0  0  0  0  0  0  0  0  0
   -1.3857   -0.8000    0.0000 C   0  0  0  0  0  0  0  0  0  0  0  0
   -1.9980   -2.2782    0.0000 H   0  0  0  0  0  0  0  0  0  0  0  0
   -0.7734   -2.2782    0.0000 H   0  0  0  0  0  0  0  0  0  0  0  0
   -2.7713    0.0000    0.0000 C   0  0  0  0  0  0  0  0  0  0  0  0
   -2.1590    1.4782    0.0000 H   0  0  0  0  0  0  0  0  0  0  0  0
   -3.3836    1.4782    0.0000 H   0  0  0  0  0  0  0  0  0  0  0  0
   -4.1569   -0.8000    0.0000 C   0  0  0  0  0  0  0  0  0  0  0  0
   -5.5426   -1.6000    0.0000 H   0  0  0  0  0  0  0  0  0  0  0  0
   -5.5426    0.0000    0.0000 H   0  0  0  0  0  0  0  0  0  0  0  0
   -4.1569   -2.4000    0.0000 Br  0  0  0  0  0  0  0  0  0  0  0  0
    2.7713    1.6000    0.0000 Br  0  0  0  0  0  0  0  0  0  0  0  0
  1  2  1  0  0  0  0
  1  3  1  0  0  0  0
  1  4  1  0  0  0  0
  4  5  1  0  0  0  0
  4  6  1  0  0  0  0
  4  7  1  0  0  0  0
  7  8  1  0  0  0  0
  7  9  1  0  0  0  0
  7 10  1  0  0  0  0
 10 11  1  0  0  0  0
 10 12  1  0  0  0  0
 10 13  1  0  0  0  0
 13 14  1  0  0  0  0
 13 15  1  0  0  0  0
 13 16  1  0  0  0  0
 16 17  1  0  0  0  0
 16 18  1  0  0  0  0
 16 19  1  0  0  0  0
  1 20  1  0  0  0  0
M  END
> <ChemID>
103033

> <source_casrn>
629-03-8

> <CAS>
629-03-8

> <SMILES>
BrCCCCCCBr

> <NAME>
Hexane, 1,6-dibromo-

> <preferred_name>
1,6-Dibromohexane

> <iupac>
1,6-dibromohexane

> <MPID>
22013

> <dsstox_substance_id>
DTXSID4044452

> <Canonical_QSARr>
BrCCCCCCBr

> <InChI_Code_QSARr>
InChI=1S/C6H12Br2/c7-5-3-1-2-4-6-8/h1-6H2

> <InChI Key_QSARr>
SGRHVVLXEBNBDV-UHFFFAOYSA-N

> <Salt_Solvent>
?

> <BP>
245.5

$$$$
103037
  -INDIGO-08031720192D

 21 20  0  0  0  0  0  0  0  0999 V2000
    4.1569    0.8000    0.0000 C   0  0  0  0  0  0  0  0  0  0  0  0
    5.5426    1.6000    0.0000 H   0  0  0  0  0  0  0  0  0  0  0  0
    5.5426    0.0000    0.0000 H   0  0  0  0  0  0  0  0  0  0  0  0
    4.1569    2.4000    0.0000 H   0  0  0  0  0  0  0  0  0  0  0  0
    2.7712    0.0000    0.0000 C   0  0  0  0  0  0  0  0  0  0  0  0
    3.3836   -1.4782    0.0000 H   0  0  0  0  0  0  0  0  0  0  0  0
    2.1589   -1.4782    0.0000 H   0  0  0  0  0  0  0  0  0  0  0  0
    1.3856    0.8000    0.0000 C   0  0  0  0  0  0  0  0  0  0  0  0
    0.7734    2.2782    0.0000 H   0  0  0  0  0  0  0  0  0  0  0  0
    1.9979    2.2782    0.0000 H   0  0  0  0  0  0  0  0  0  0  0  0
    0.0001    0.0000    0.0000 C   0  0  0  0  0  0  0  0  0  0  0  0
    0.6122   -1.4782    0.0000 H   0  0  0  0  0  0  0  0  0  0  0  0
   -0.6122   -1.4782    0.0000 H   0  0  0  0  0  0  0  0  0  0  0  0
   -1.3856    0.8000    0.0000 C   0  0  0  0  0  0  0  0  0  0  0  0
   -1.9979    2.2782    0.0000 H   0  0  0  0  0  0  0  0  0  0  0  0
   -0.7734    2.2782    0.0000 H   0  0  0  0  0  0  0  0  0  0  0  0
   -2.7712    0.0000    0.0000 C   0  0  0  0  0  0  0  0  0  0  0  0
   -2.1589   -1.4782    0.0000 H   0  0  0  0  0  0  0  0  0  0  0  0
   -3.3836   -1.4782    0.0000 H   0  0  0  0  0  0  0  0  0  0  0  0
   -4.1569    0.8000    0.0000 C   0  0  0  0  0  0  0  0  0  0  0  0
   -5.5426    1.6000    0.0000 N   0  0  0  0  0  0  0  0  0  0  0  0
  1  2  1  0  0  0  0
  1  3  1  0  0  0  0
  1  4  1  0  0  0  0
  1  5  1  0  0  0  0
  5  6  1  0  0  0  0
  5  7  1  0  0  0  0
  5  8  1  0  0  0  0
  8  9  1  0  0  0  0
  8 10  1  0  0  0  0
  8 11  1  0  0  0  0
 11 12  1  0  0  0  0
 11 13  1  0  0  0  0
 11 14  1  0  0  0  0
 14 15  1  0  0  0  0
 14 16  1  0  0  0  0
 14 17  1  0  0  0  0
 17 18  1  0  0  0  0
 17 19  1  0  0  0  0
 17 20  1  0  0  0  0
 20 21  3  0  0  0  0
M  END
> <ChemID>
103037

> <source_casrn>
629-08-3

> <CAS>
629-08-3

> <SMILES>
CCCCCCC#N

> <NAME>
HEPTANENITRILE

> <preferred_name>
Heptanenitrile

> <iupac>
heptanenitrile

> <MPID>
22017

> <dsstox_substance_id>
DTXSID0021599

> <Canonical_QSARr>
CCCCCCC#N

> <InChI_Code_QSARr>
InChI=1S/C7H13N/c1-2-3-4-5-6-7-8/h2-6H2,1H3

> <InChI Key_QSARr>
SDAXRHHPNYTELL-UHFFFAOYSA-N

> <Salt_Solvent>
?

> <BP>
183.0

$$$$
103041
  -INDIGO-08031720192D

 22 21  0  0  0  0  0  0  0  0999 V2000
    1.3856    0.8000    0.0000 C   0  0  0  0  0  0  0  0  0  0  0  0
    2.7713    1.6000    0.0000 H   0  0  0  0  0  0  0  0  0  0  0  0
    2.7713    0.0000    0.0000 H   0  0  0  0  0  0  0  0  0  0  0  0
    1.3856    2.4000    0.0000 H   0  0  0  0  0  0  0  0  0  0  0  0
    0.0001    0.0000    0.0000 C   0  0  0  0  0  0  0  0  0  0  0  0
   -0.6123   -1.4782    0.0000 H   0  0  0  0  0  0  0  0  0  0  0  0
    0.6122   -1.4782    0.0000 H   0  0  0  0  0  0  0  0  0  0  0  0
   -1.3856    0.8000    0.0000 C   0  0  0  0  0  0  0  0  0  0  0  0
   -0.7733    2.2782    0.0000 H   0  0  0  0  0  0  0  0  0  0  0  0
   -1.9980    2.2782    0.0000 H   0  0  0  0  0  0  0  0  0  0  0  0
   -2.7713    0.0000    0.0000 S   0  0  0  0  0  0  0  0  0  0  0  0
   -4.1569    0.8000    0.0000 S   0  0  0  0  0  0  0  0  0  0  0  0
   -5.5426    0.0000    0.0000 C   0  0  0  0  0  0  0  0  0  0  0  0
   -6.1549   -1.4782    0.0000 H   0  0  0  0  0  0  0  0  0  0  0  0
   -4.9302   -1.4782    0.0000 H   0  0  0  0  0  0  0  0  0  0  0  0
   -6.9283    0.8000    0.0000 C   0  0  0  0  0  0  0  0  0  0  0  0
   -6.3159    2.2782    0.0000 H   0  0  0  0  0  0  0  0  0  0  0  0
   -7.5404    2.2782    0.0000 H   0  0  0  0  0  0  0  0  0  0  0  0
   -8.3138    0.0000    0.0000 C   0  0  0  0  0  0  0  0  0  0  0  0
   -9.6995   -0.8000    0.0000 H   0  0  0  0  0  0  0  0  0  0  0  0
   -9.6995    0.8000    0.0000 H   0  0  0  0  0  0  0  0  0  0  0  0
   -8.3138   -1.6000    0.0000 H   0  0  0  0  0  0  0  0  0  0  0  0
  1  2  1  0  0  0  0
  1  3  1  0  0  0  0
  1  4  1  0  0  0  0
  1  5  1  0  0  0  0
  5  6  1  0  0  0  0
  5  7  1  0  0  0  0
  5  8  1  0  0  0  0
  8  9  1  0  0  0  0
  8 10  1  0  0  0  0
  8 11  1  0  0  0  0
 11 12  1  0  0  0  0
 12 13  1  0  0  0  0
 13 14  1  0  0  0  0
 13 15  1  0  0  0  0
 13 16  1  0  0  0  0
 16 17  1  0  0  0  0
 16 18  1  0  0  0  0
 16 19  1  0  0  0  0
 19 20  1  0  0  0  0
 19 21  1  0  0  0  0
 19 22  1  0  0  0  0
M  END
> <ChemID>
103041

> <source_casrn>
629-19-6

> <CAS>
629-19-6

> <SMILES>
CCCSSCCC

> <NAME>
4,5-DITHIAOCTANE

> <preferred_name>
Dipropyl disulfide

> <iupac>
dipropyl disulfide

> <MPID>
22021

> <dsstox_substance_id>
DTXSID2022096

> <Canonical_QSARr>
CCCSSCCC

> <InChI_Code_QSARr>
InChI=1S/C6H14S2/c1-3-5-7-8-6-4-2/h3-6H2,1-2H3

> <InChI Key_QSARr>
ALVPFGSHPUPROW-UHFFFAOYSA-N

> <Salt_Solvent>
?

> <BP>
193.5

$$$$
103045
  -INDIGO-08031720192D

 24 23  0  0  0  0  0  0  0  0999 V2000
    5.5425    0.0000    0.0000 N   0  0  0  0  0  0  0  0  0  0  0  0
    6.9282    0.8000    0.0000 O   0  0  0  0  0  0  0  0  0  0  0  0
    4.1570    0.8000    0.0000 C   0  0  0  0  0  0  0  0  0  0  0  0
    3.5446    2.2782    0.0000 H   0  0  0  0  0  0  0  0  0  0  0  0
    4.7692    2.2782    0.0000 H   0  0  0  0  0  0  0  0  0  0  0  0
    2.7713    0.0000    0.0000 C   0  0  0  0  0  0  0  0  0  0  0  0
    3.3836   -1.4782    0.0000 H   0  0  0  0  0  0  0  0  0  0  0  0
    2.1589   -1.4782    0.0000 H   0  0  0  0  0  0  0  0  0  0  0  0
    1.3856    0.8000    0.0000 C   0  0  0  0  0  0  0  0  0  0  0  0
    0.7734    2.2782    0.0000 H   0  0  0  0  0  0  0  0  0  0  0  0
    1.9979    2.2782    0.0000 H   0  0  0  0  0  0  0  0  0  0  0  0
    0.0001    0.0000    0.0000 C   0  0  0  0  0  0  0  0  0  0  0  0
    0.6122   -1.4782    0.0000 H   0  0  0  0  0  0  0  0  0  0  0  0
   -0.6123   -1.4782    0.0000 H   0  0  0  0  0  0  0  0  0  0  0  0
   -1.3856    0.8000    0.0000 C   0  0  0  0  0  0  0  0  0  0  0  0
   -1.9980    2.2782    0.0000 H   0  0  0  0  0  0  0  0  0  0  0  0
   -0.7733    2.2782    0.0000 H   0  0  0  0  0  0  0  0  0  0  0  0
   -2.7713    0.0000    0.0000 C   0  0  0  0  0  0  0  0  0  0  0  0
   -2.1590   -1.4782    0.0000 H   0  0  0  0  0  0  0  0  0  0  0  0
   -3.3835   -1.4782    0.0000 H   0  0  0  0  0  0  0  0  0  0  0  0
   -4.1569    0.8000    0.0000 C   0  0  0  0  0  0  0  0  0  0  0  0
   -5.5426    1.6000    0.0000 H   0  0  0  0  0  0  0  0  0  0  0  0
   -5.5426    0.0000    0.0000 H   0  0  0  0  0  0  0  0  0  0  0  0
   -4.1569    2.4000    0.0000 H   0  0  0  0  0  0  0  0  0  0  0  0
  1  2  2  0  0  0  0
  1  3  1  0  0  0  0
  3  4  1  0  0  0  0
  3  5  1  0  0  0  0
  3  6  1  0  0  0  0
  6  7  1  0  0  0  0
  6  8  1  0  0  0  0
  6  9  1  0  0  0  0
  9 10  1  0  0  0  0
  9 11  1  0  0  0  0
  9 12  1  0  0  0  0
 12 13  1  0  0  0  0
 12 14  1  0  0  0  0
 12 15  1  0  0  0  0
 15 16  1  0  0  0  0
 15 17  1  0  0  0  0
 15 18  1  0  0  0  0
 18 19  1  0  0  0  0
 18 20  1  0  0  0  0
 18 21  1  0  0  0  0
 21 22  1  0  0  0  0
 21 23  1  0  0  0  0
 21 24  1  0  0  0  0
M  END
> <ChemID>
103045

> <source_casrn>
629-31-2

> <CAS>
629-31-2

> <SMILES>
CCCCCCC=NO

> <NAME>
Heptanal, oxime

> <preferred_name>
Heptanal, oxime

> <iupac>


> <MPID>
22025

> <dsstox_substance_id>
DTXSID9060869

> <Canonical_QSARr>
CCCCCCCN=O

> <InChI_Code_QSARr>
InChI=1S/C7H15NO/c1-2-3-4-5-6-7-8-9/h2-7H2,1H3

> <InChI Key_QSARr>
DMJBDVZMPKTLON-UHFFFAOYSA-N

> <Salt_Solvent>
?

> <BP>
195.0

$$$$
103049
  -INDIGO-08031720192D

 41 40  0  0  0  0  0  0  0  0999 V2000
    8.3139   -0.0000    0.0000 C   0  0  0  0  0  0  0  0  0  0  0  0
    9.6995   -0.8000    0.0000 H   0  0  0  0  0  0  0  0  0  0  0  0
    9.6995    0.8000    0.0000 H   0  0  0  0  0  0  0  0  0  0  0  0
    8.3139   -1.6000    0.0000 H   0  0  0  0  0  0  0  0  0  0  0  0
    6.9282    0.8000    0.0000 C   0  0  0  0  0  0  0  0  0  0  0  0
    6.3158    2.2782    0.0000 H   0  0  0  0  0  0  0  0  0  0  0  0
    7.5404    2.2782    0.0000 H   0  0  0  0  0  0  0  0  0  0  0  0
    5.5426   -0.0000    0.0000 C   0  0  0  0  0  0  0  0  0  0  0  0
    6.1548   -1.4782    0.0000 H   0  0  0  0  0  0  0  0  0  0  0  0
    4.9302   -1.4782    0.0000 H   0  0  0  0  0  0  0  0  0  0  0  0
    4.1570    0.8000    0.0000 C   0  0  0  0  0  0  0  0  0  0  0  0
    3.5446    2.2782    0.0000 H   0  0  0  0  0  0  0  0  0  0  0  0
    4.7692    2.2782    0.0000 H   0  0  0  0  0  0  0  0  0  0  0  0
    2.7714   -0.0000    0.0000 C   0  0  0  0  0  0  0  0  0  0  0  0
    3.3835   -1.4782    0.0000 H   0  0  0  0  0  0  0  0  0  0  0  0
    2.1589   -1.4782    0.0000 H   0  0  0  0  0  0  0  0  0  0  0  0
    1.3858    0.8000    0.0000 C   0  0  0  0  0  0  0  0  0  0  0  0
    0.7733    2.2782    0.0000 H   0  0  0  0  0  0  0  0  0  0  0  0
    1.9979    2.2782    0.0000 H   0  0  0  0  0  0  0  0  0  0  0  0
    0.0001   -0.0000    0.0000 C   0  0  0  0  0  0  0  0  0  0  0  0
    0.6123   -1.4782    0.0000 H   0  0  0  0  0  0  0  0  0  0  0  0
   -0.6123   -1.4782    0.0000 H   0  0  0  0  0  0  0  0  0  0  0  0
   -1.3858    0.8000    0.0000 C   0  0  0  0  0  0  0  0  0  0  0  0
   -1.9979    2.2782    0.0000 H   0  0  0  0  0  0  0  0  0  0  0  0
   -0.7733    2.2782    0.0000 H   0  0  0  0  0  0  0  0  0  0  0  0
   -2.7714   -0.0000    0.0000 C   0  0  0  0  0  0  0  0  0  0  0  0
   -2.1589   -1.4782    0.0000 H   0  0  0  0  0  0  0  0  0  0  0  0
   -3.3835   -1.4782    0.0000 H   0  0  0  0  0  0  0  0  0  0  0  0
   -4.1570    0.8000    0.0000 C   0  0  0  0  0  0  0  0  0  0  0  0
   -4.7692    2.2782    0.0000 H   0  0  0  0  0  0  0  0  0  0  0  0
   -3.5446    2.2782    0.0000 H   0  0  0  0  0  0  0  0  0  0  0  0
   -5.5426   -0.0000    0.0000 C   0  0  0  0  0  0  0  0  0  0  0  0
   -4.9302   -1.4782    0.0000 H   0  0  0  0  0  0  0  0  0  0  0  0
   -6.1548   -1.4782    0.0000 H   0  0  0  0  0  0  0  0  0  0  0  0
   -6.9282    0.8000    0.0000 C   0  0  0  0  0  0  0  0  0  0  0  0
   -7.5404    2.2782    0.0000 H   0  0  0  0  0  0  0  0  0  0  0  0
   -6.3158    2.2782    0.0000 H   0  0  0  0  0  0  0  0  0  0  0  0
   -8.3139   -0.0000    0.0000 C   0  0  0  0  0  0  0  0  0  0  0  0
   -9.6995   -0.8000    0.0000 H   0  0  0  0  0  0  0  0  0  0  0  0
   -9.6995    0.8000    0.0000 H   0  0  0  0  0  0  0  0  0  0  0  0
   -8.3139   -1.6000    0.0000 H   0  0  0  0  0  0  0  0  0  0  0  0
  1  2  1  0  0  0  0
  1  3  1  0  0  0  0
  1  4  1  0  0  0  0
  1  5  1  0  0  0  0
  5  6  1  0  0  0  0
  5  7  1  0  0  0  0
  5  8  1  0  0  0  0
  8  9  1  0  0  0  0
  8 10  1  0  0  0  0
  8 11  1  0  0  0  0
 11 12  1  0  0  0  0
 11 13  1  0  0  0  0
 11 14  1  0  0  0  0
 14 15  1  0  0  0  0
 14 16  1  0  0  0  0
 14 17  1  0  0  0  0
 17 18  1  0  0  0  0
 17 19  1  0  0  0  0
 17 20  1  0  0  0  0
 20 21  1  0  0  0  0
 20 22  1  0  0  0  0
 20 23  1  0  0  0  0
 23 24  1  0  0  0  0
 23 25  1  0  0  0  0
 23 26  1  0  0  0  0
 26 27  1  0  0  0  0
 26 28  1  0  0  0  0
 26 29  1  0  0  0  0
 29 30  1  0  0  0  0
 29 31  1  0  0  0  0
 29 32  1  0  0  0  0
 32 33  1  0  0  0  0
 32 34  1  0  0  0  0
 32 35  1  0  0  0  0
 35 36  1  0  0  0  0
 35 37  1  0  0  0  0
 35 38  1  0  0  0  0
 38 39  1  0  0  0  0
 38 40  1  0  0  0  0
 38 41  1  0  0  0  0
M  END
> <ChemID>
103049

> <source_casrn>
629-50-5

> <CAS>
629-50-5

> <SMILES>
CCCCCCCCCCCCC

> <NAME>
N-TRIDECANE

> <preferred_name>
Tridecane

> <iupac>
tridecane

> <MPID>
22029

> <dsstox_substance_id>
DTXSID6027266

> <Canonical_QSARr>
CCCCCCCCCCCCC

> <InChI_Code_QSARr>
InChI=1S/C13H28/c1-3-5-7-9-11-13-12-10-8-6-4-2/h3-13H2,1-2H3

> <InChI Key_QSARr>
IIYFAKIEWZDVMP-UHFFFAOYSA-N

> <Salt_Solvent>
?

> <BP>
235.4

$$$$
103053
  -INDIGO-08031720192D

 45 44  0  0  0  0  0  0  0  0999 V2000
    5.5424    0.0000    0.0000 O   0  0  0  0  0  0  0  0  0  0  0  0
    6.9281    0.8000    0.0000 C   0  0  0  0  0  0  0  0  0  0  0  0
    6.3161    2.2782    0.0000 H   0  0  0  0  0  0  0  0  0  0  0  0
    7.5404    2.2782    0.0000 H   0  0  0  0  0  0  0  0  0  0  0  0
    8.3137    0.0000    0.0000 C   0  0  0  0  0  0  0  0  0  0  0  0
    8.9260   -1.4782    0.0000 H   0  0  0  0  0  0  0  0  0  0  0  0
    7.7014   -1.4782    0.0000 H   0  0  0  0  0  0  0  0  0  0  0  0
    9.6994    0.8000    0.0000 C   0  0  0  0  0  0  0  0  0  0  0  0
    9.0871    2.2782    0.0000 H   0  0  0  0  0  0  0  0  0  0  0  0
   10.3117    2.2782    0.0000 H   0  0  0  0  0  0  0  0  0  0  0  0
   11.0850    0.0000    0.0000 C   0  0  0  0  0  0  0  0  0  0  0  0
   11.6974   -1.4782    0.0000 H   0  0  0  0  0  0  0  0  0  0  0  0
   10.4727   -1.4782    0.0000 H   0  0  0  0  0  0  0  0  0  0  0  0
   12.4707    0.8000    0.0000 C   0  0  0  0  0  0  0  0  0  0  0  0
   11.8584    2.2782    0.0000 H   0  0  0  0  0  0  0  0  0  0  0  0
   13.0830    2.2782    0.0000 H   0  0  0  0  0  0  0  0  0  0  0  0
   13.8564    0.0000    0.0000 C   0  0  0  0  0  0  0  0  0  0  0  0
   14.4687   -1.4782    0.0000 H   0  0  0  0  0  0  0  0  0  0  0  0
   13.2440   -1.4782    0.0000 H   0  0  0  0  0  0  0  0  0  0  0  0
   15.2420    0.8000    0.0000 C   0  0  0  0  0  0  0  0  0  0  0  0
   16.6277    1.6000    0.0000 H   0  0  0  0  0  0  0  0  0  0  0  0
   16.6277    0.0000    0.0000 H   0  0  0  0  0  0  0  0  0  0  0  0
   15.2420    2.4000    0.0000 H   0  0  0  0  0  0  0  0  0  0  0  0
    4.1571    0.8000    0.0000 C   0  0  0  0  0  0  0  0  0  0  0  0
    3.5448    2.2782    0.0000 H   0  0  0  0  0  0  0  0  0  0  0  0
    4.7690    2.2782    0.0000 H   0  0  0  0  0  0  0  0  0  0  0  0
    2.7714    0.0000    0.0000 C   0  0  0  0  0  0  0  0  0  0  0  0
    3.3837   -1.4782    0.0000 H   0  0  0  0  0  0  0  0  0  0  0  0
    2.1591   -1.4782    0.0000 H   0  0  0  0  0  0  0  0  0  0  0  0
    1.3857    0.8000    0.0000 C   0  0  0  0  0  0  0  0  0  0  0  0
    0.7734    2.2782    0.0000 H   0  0  0  0  0  0  0  0  0  0  0  0
    1.9981    2.2782    0.0000 H   0  0  0  0  0  0  0  0  0  0  0  0
    0.0001    0.0000    0.0000 C   0  0  0  0  0  0  0  0  0  0  0  0
    0.6124   -1.4782    0.0000 H   0  0  0  0  0  0  0  0  0  0  0  0
   -0.6122   -1.4782    0.0000 H   0  0  0  0  0  0  0  0  0  0  0  0
   -1.3856    0.8000    0.0000 C   0  0  0  0  0  0  0  0  0  0  0  0
   -1.9979    2.2782    0.0000 H   0  0  0  0  0  0  0  0  0  0  0  0
   -0.7733    2.2782    0.0000 H   0  0  0  0  0  0  0  0  0  0  0  0
   -2.7712    0.0000    0.0000 C   0  0  0  0  0  0  0  0  0  0  0  0
   -2.1589   -1.4782    0.0000 H   0  0  0  0  0  0  0  0  0  0  0  0
   -3.3836   -1.4782    0.0000 H   0  0  0  0  0  0  0  0  0  0  0  0
   -4.1569    0.8000    0.0000 C   0  0  0  0  0  0  0  0  0  0  0  0
   -5.5426    1.6000    0.0000 H   0  0  0  0  0  0  0  0  0  0  0  0
   -5.5426    0.0000    0.0000 H   0  0  0  0  0  0  0  0  0  0  0  0
   -4.1569    2.4000    0.0000 H   0  0  0  0  0  0  0  0  0  0  0  0
  1  2  1  0  0  0  0
  2  3  1  0  0  0  0
  2  4  1  0  0  0  0
  2  5  1  0  0  0  0
  5  6  1  0  0  0  0
  5  7  1  0  0  0  0
  5  8  1  0  0  0  0
  8  9  1  0  0  0  0
  8 10  1  0  0  0  0
  8 11  1  0  0  0  0
 11 12  1  0  0  0  0
 11 13  1  0  0  0  0
 11 14  1  0  0  0  0
 14 15  1  0  0  0  0
 14 16  1  0  0  0  0
 14 17  1  0  0  0  0
 17 18  1  0  0  0  0
 17 19  1  0  0  0  0
 17 20  1  0  0  0  0
 20 21  1  0  0  0  0
 20 22  1  0  0  0  0
 20 23  1  0  0  0  0
  1 24  1  0  0  0  0
 24 25  1  0  0  0  0
 24 26  1  0  0  0  0
 24 27  1  0  0  0  0
 27 28  1  0  0  0  0
 27 29  1  0  0  0  0
 27 30  1  0  0  0  0
 30 31  1  0  0  0  0
 30 32  1  0  0  0  0
 30 33  1  0  0  0  0
 33 34  1  0  0  0  0
 33 35  1  0  0  0  0
 33 36  1  0  0  0  0
 36 37  1  0  0  0  0
 36 38  1  0  0  0  0
 36 39  1  0  0  0  0
 39 40  1  0  0  0  0
 39 41  1  0  0  0  0
 39 42  1  0  0  0  0
 42 43  1  0  0  0  0
 42 44  1  0  0  0  0
 42 45  1  0  0  0  0
M  END
> <ChemID>
103053

> <source_casrn>
629-64-1

> <CAS>
629-64-1

> <SMILES>
CCCCCCCOCCCCCCC

> <NAME>
Heptane, 1,1'-oxybis-

> <preferred_name>
Heptane, 1,1'-oxybis-

> <iupac>
1-heptoxyheptane

> <MPID>
22033

> <dsstox_substance_id>
DTXSID8060878

> <Canonical_QSARr>
CCCCCCCOCCCCCCC

> <InChI_Code_QSARr>
InChI=1S/C14H30O/c1-3-5-7-9-11-13-15-14-12-10-8-6-4-2/h3-14H2,1-2H3

> <InChI Key_QSARr>
UJEGHEMJVNQWOJ-UHFFFAOYSA-N

> <Salt_Solvent>
?

> <BP>
258.5

$$$$
103057
  -INDIGO-08031720192D

 46 45  0  0  0  0  0  0  0  0999 V2000
    0.0000    0.0000    0.0000 C   0  0  0  0  0  0  0  0  0  0  0  0
    0.6121   -1.4782    0.0000 H   0  0  0  0  0  0  0  0  0  0  0  0
   -0.6121   -1.4782    0.0000 H   0  0  0  0  0  0  0  0  0  0  0  0
   -1.3856    0.8000    0.0000 C   0  0  0  0  0  0  0  0  0  0  0  0
   -1.9978    2.2782    0.0000 H   0  0  0  0  0  0  0  0  0  0  0  0
   -0.7735    2.2782    0.0000 H   0  0  0  0  0  0  0  0  0  0  0  0
   -2.7713    0.0000    0.0000 C   0  0  0  0  0  0  0  0  0  0  0  0
   -2.1592   -1.4782    0.0000 H   0  0  0  0  0  0  0  0  0  0  0  0
   -3.3834   -1.4782    0.0000 H   0  0  0  0  0  0  0  0  0  0  0  0
   -4.1569    0.8000    0.0000 C   0  0  0  0  0  0  0  0  0  0  0  0
   -4.7690    2.2782    0.0000 H   0  0  0  0  0  0  0  0  0  0  0  0
   -3.5448    2.2782    0.0000 H   0  0  0  0  0  0  0  0  0  0  0  0
   -5.5426    0.0000    0.0000 C   0  0  0  0  0  0  0  0  0  0  0  0
   -4.9304   -1.4782    0.0000 H   0  0  0  0  0  0  0  0  0  0  0  0
   -6.1547   -1.4782    0.0000 H   0  0  0  0  0  0  0  0  0  0  0  0
   -6.9282    0.8000    0.0000 C   0  0  0  0  0  0  0  0  0  0  0  0
   -7.5403    2.2782    0.0000 H   0  0  0  0  0  0  0  0  0  0  0  0
   -6.3161    2.2782    0.0000 H   0  0  0  0  0  0  0  0  0  0  0  0
   -8.3138    0.0000    0.0000 C   0  0  0  0  0  0  0  0  0  0  0  0
   -7.7017   -1.4782    0.0000 H   0  0  0  0  0  0  0  0  0  0  0  0
   -8.9260   -1.4782    0.0000 H   0  0  0  0  0  0  0  0  0  0  0  0
   -9.6995    0.8000    0.0000 C   0  0  0  0  0  0  0  0  0  0  0  0
  -11.0851    1.6000    0.0000 C   0  0  0  0  0  0  0  0  0  0  0  0
  -12.4708    2.4000    0.0000 H   0  0  0  0  0  0  0  0  0  0  0  0
    1.3856    0.8000    0.0000 C   0  0  0  0  0  0  0  0  0  0  0  0
    0.7735    2.2782    0.0000 H   0  0  0  0  0  0  0  0  0  0  0  0
    1.9978    2.2782    0.0000 H   0  0  0  0  0  0  0  0  0  0  0  0
    2.7713    0.0000    0.0000 C   0  0  0  0  0  0  0  0  0  0  0  0
    3.3834   -1.4782    0.0000 H   0  0  0  0  0  0  0  0  0  0  0  0
    2.1592   -1.4782    0.0000 H   0  0  0  0  0  0  0  0  0  0  0  0
    4.1569    0.8000    0.0000 C   0  0  0  0  0  0  0  0  0  0  0  0
    3.5448    2.2782    0.0000 H   0  0  0  0  0  0  0  0  0  0  0  0
    4.7690    2.2782    0.0000 H   0  0  0  0  0  0  0  0  0  0  0  0
    5.5426    0.0000    0.0000 C   0  0  0  0  0  0  0  0  0  0  0  0
    6.1547   -1.4782    0.0000 H   0  0  0  0  0  0  0  0  0  0  0  0
    4.9304   -1.4782    0.0000 H   0  0  0  0  0  0  0  0  0  0  0  0
    6.9282    0.8000    0.0000 C   0  0  0  0  0  0  0  0  0  0  0  0
    6.3161    2.2782    0.0000 H   0  0  0  0  0  0  0  0  0  0  0  0
    7.5403    2.2782    0.0000 H   0  0  0  0  0  0  0  0  0  0  0  0
    8.3138    0.0000    0.0000 C   0  0  0  0  0  0  0  0  0  0  0  0
    8.9260   -1.4782    0.0000 H   0  0  0  0  0  0  0  0  0  0  0  0
    7.7017   -1.4782    0.0000 H   0  0  0  0  0  0  0  0  0  0  0  0
    9.6995    0.8000    0.0000 C   0  0  0  0  0  0  0  0  0  0  0  0
   11.0851    1.6000    0.0000 H   0  0  0  0  0  0  0  0  0  0  0  0
   11.0851    0.0000    0.0000 H   0  0  0  0  0  0  0  0  0  0  0  0
    9.6995    2.4000    0.0000 H   0  0  0  0  0  0  0  0  0  0  0  0
  1  2  1  0  0  0  0
  1  3  1  0  0  0  0
  1  4  1  0  0  0  0
  4  5  1  0  0  0  0
  4  6  1  0  0  0  0
  4  7  1  0  0  0  0
  7  8  1  0  0  0  0
  7  9  1  0  0  0  0
  7 10  1  0  0  0  0
 10 11  1  0  0  0  0
 10 12  1  0  0  0  0
 10 13  1  0  0  0  0
 13 14  1  0  0  0  0
 13 15  1  0  0  0  0
 13 16  1  0  0  0  0
 16 17  1  0  0  0  0
 16 18  1  0  0  0  0
 16 19  1  0  0  0  0
 19 20  1  0  0  0  0
 19 21  1  0  0  0  0
 19 22  1  0  0  0  0
 22 23  3  0  0  0  0
 23 24  1  0  0  0  0
  1 25  1  0  0  0  0
 25 26  1  0  0  0  0
 25 27  1  0  0  0  0
 25 28  1  0  0  0  0
 28 29  1  0  0  0  0
 28 30  1  0  0  0  0
 28 31  1  0  0  0  0
 31 32  1  0  0  0  0
 31 33  1  0  0  0  0
 31 34  1  0  0  0  0
 34 35  1  0  0  0  0
 34 36  1  0  0  0  0
 34 37  1  0  0  0  0
 37 38  1  0  0  0  0
 37 39  1  0  0  0  0
 37 40  1  0  0  0  0
 40 41  1  0  0  0  0
 40 42  1  0  0  0  0
 40 43  1  0  0  0  0
 43 44  1  0  0  0  0
 43 45  1  0  0  0  0
 43 46  1  0  0  0  0
M  END
> <ChemID>
103057

> <source_casrn>
629-74-3

> <CAS>
629-74-3

> <SMILES>
CCCCCCCCCCCCCCC#C

> <NAME>
1-Hexadecyne

> <preferred_name>
1-Hexadecyne

> <iupac>
hexadec-1-yne

> <MPID>
22037

> <dsstox_substance_id>
DTXSID2060880

> <Canonical_QSARr>
CCCCCCCCCCCCCCC#C

> <InChI_Code_QSARr>
InChI=1S/C16H30/c1-3-5-7-9-11-13-15-16-14-12-10-8-6-4-2/h1H,4-16H2,2H3

> <InChI Key_QSARr>
UCIDYSLOTJMRAM-UHFFFAOYSA-N

> <Salt_Solvent>
?

> <BP>
284.0

$$$$
103061
  -INDIGO-08031720192D

 52 51  0  0  0  0  0  0  0  0999 V2000
    0.0000    0.0000    0.0000 C   0  0  0  0  0  0  0  0  0  0  0  0
    0.6123    1.4782    0.0000 H   0  0  0  0  0  0  0  0  0  0  0  0
   -0.6122    1.4782    0.0000 H   0  0  0  0  0  0  0  0  0  0  0  0
   -1.3855   -0.8000    0.0000 C   0  0  0  0  0  0  0  0  0  0  0  0
   -1.9977   -2.2782    0.0000 H   0  0  0  0  0  0  0  0  0  0  0  0
   -0.7733   -2.2782    0.0000 H   0  0  0  0  0  0  0  0  0  0  0  0
   -2.7715    0.0000    0.0000 C   0  0  0  0  0  0  0  0  0  0  0  0
   -2.1588    1.4782    0.0000 H   0  0  0  0  0  0  0  0  0  0  0  0
   -3.3837    1.4782    0.0000 H   0  0  0  0  0  0  0  0  0  0  0  0
   -4.1570   -0.8000    0.0000 C   0  0  0  0  0  0  0  0  0  0  0  0
   -4.7693   -2.2782    0.0000 H   0  0  0  0  0  0  0  0  0  0  0  0
   -3.5448   -2.2782    0.0000 H   0  0  0  0  0  0  0  0  0  0  0  0
   -5.5426    0.0000    0.0000 C   0  0  0  0  0  0  0  0  0  0  0  0
   -4.9304    1.4782    0.0000 H   0  0  0  0  0  0  0  0  0  0  0  0
   -6.1548    1.4782    0.0000 H   0  0  0  0  0  0  0  0  0  0  0  0
   -6.9281   -0.8000    0.0000 C   0  0  0  0  0  0  0  0  0  0  0  0
   -7.5404   -2.2782    0.0000 H   0  0  0  0  0  0  0  0  0  0  0  0
   -6.3159   -2.2782    0.0000 H   0  0  0  0  0  0  0  0  0  0  0  0
   -8.3137    0.0000    0.0000 C   0  0  0  0  0  0  0  0  0  0  0  0
   -7.7015    1.4782    0.0000 H   0  0  0  0  0  0  0  0  0  0  0  0
   -8.9263    1.4782    0.0000 H   0  0  0  0  0  0  0  0  0  0  0  0
   -9.6997   -0.8000    0.0000 C   0  0  0  0  0  0  0  0  0  0  0  0
  -10.3119   -2.2782    0.0000 H   0  0  0  0  0  0  0  0  0  0  0  0
   -9.0870   -2.2782    0.0000 H   0  0  0  0  0  0  0  0  0  0  0  0
  -11.0852    0.0000    0.0000 C   0  0  0  0  0  0  0  0  0  0  0  0
  -12.4708    0.8000    0.0000 H   0  0  0  0  0  0  0  0  0  0  0  0
  -12.4708   -0.8000    0.0000 H   0  0  0  0  0  0  0  0  0  0  0  0
  -11.0852    1.6000    0.0000 H   0  0  0  0  0  0  0  0  0  0  0  0
    1.3856   -0.8000    0.0000 C   0  0  0  0  0  0  0  0  0  0  0  0
    0.7734   -2.2782    0.0000 H   0  0  0  0  0  0  0  0  0  0  0  0
    1.9978   -2.2782    0.0000 H   0  0  0  0  0  0  0  0  0  0  0  0
    2.7712    0.0000    0.0000 C   0  0  0  0  0  0  0  0  0  0  0  0
    3.3834    1.4782    0.0000 H   0  0  0  0  0  0  0  0  0  0  0  0
    2.1589    1.4782    0.0000 H   0  0  0  0  0  0  0  0  0  0  0  0
    4.1571   -0.8000    0.0000 C   0  0  0  0  0  0  0  0  0  0  0  0
    3.5445   -2.2782    0.0000 H   0  0  0  0  0  0  0  0  0  0  0  0
    4.7693   -2.2782    0.0000 H   0  0  0  0  0  0  0  0  0  0  0  0
    5.5427    0.0000    0.0000 C   0  0  0  0  0  0  0  0  0  0  0  0
    6.1549    1.4782    0.0000 H   0  0  0  0  0  0  0  0  0  0  0  0
    4.9304    1.4782    0.0000 H   0  0  0  0  0  0  0  0  0  0  0  0
    6.9282   -0.8000    0.0000 C   0  0  0  0  0  0  0  0  0  0  0  0
    6.3160   -2.2782    0.0000 H   0  0  0  0  0  0  0  0  0  0  0  0
    7.5405   -2.2782    0.0000 H   0  0  0  0  0  0  0  0  0  0  0  0
    8.3138    0.0000    0.0000 C   0  0  0  0  0  0  0  0  0  0  0  0
    8.9260    1.4782    0.0000 H   0  0  0  0  0  0  0  0  0  0  0  0
    7.7015    1.4782    0.0000 H   0  0  0  0  0  0  0  0  0  0  0  0
    9.6993   -0.8000    0.0000 C   0  0  0  0  0  0  0  0  0  0  0  0
    9.0871   -2.2782    0.0000 H   0  0  0  0  0  0  0  0  0  0  0  0
   10.3120   -2.2782    0.0000 H   0  0  0  0  0  0  0  0  0  0  0  0
   11.0853    0.0000    0.0000 C   0  0  0  0  0  0  0  0  0  0  0  0
   12.4709    0.8000    0.0000 C   0  0  0  0  0  0  0  0  0  0  0  0
   13.8564    1.6000    0.0000 H   0  0  0  0  0  0  0  0  0  0  0  0
  1  2  1  0  0  0  0
  1  3  1  0  0  0  0
  1  4  1  0  0  0  0
  4  5  1  0  0  0  0
  4  6  1  0  0  0  0
  4  7  1  0  0  0  0
  7  8  1  0  0  0  0
  7  9  1  0  0  0  0
  7 10  1  0  0  0  0
 10 11  1  0  0  0  0
 10 12  1  0  0  0  0
 10 13  1  0  0  0  0
 13 14  1  0  0  0  0
 13 15  1  0  0  0  0
 13 16  1  0  0  0  0
 16 17  1  0  0  0  0
 16 18  1  0  0  0  0
 16 19  1  0  0  0  0
 19 20  1  0  0  0  0
 19 21  1  0  0  0  0
 19 22  1  0  0  0  0
 22 23  1  0  0  0  0
 22 24  1  0  0  0  0
 22 25  1  0  0  0  0
 25 26  1  0  0  0  0
 25 27  1  0  0  0  0
 25 28  1  0  0  0  0
  1 29  1  0  0  0  0
 29 30  1  0  0  0  0
 29 31  1  0  0  0  0
 29 32  1  0  0  0  0
 32 33  1  0  0  0  0
 32 34  1  0  0  0  0
 32 35  1  0  0  0  0
 35 36  1  0  0  0  0
 35 37  1  0  0  0  0
 35 38  1  0  0  0  0
 38 39  1  0  0  0  0
 38 40  1  0  0  0  0
 38 41  1  0  0  0  0
 41 42  1  0  0  0  0
 41 43  1  0  0  0  0
 41 44  1  0  0  0  0
 44 45  1  0  0  0  0
 44 46  1  0  0  0  0
 44 47  1  0  0  0  0
 47 48  1  0  0  0  0
 47 49  1  0  0  0  0
 47 50  1  0  0  0  0
 50 51  3  0  0  0  0
 51 52  1  0  0  0  0
M  END
> <ChemID>
103061

> <source_casrn>
629-89-0

> <CAS>
629-89-0

> <SMILES>
CCCCCCCCCCCCCCCCC#C

> <NAME>
Octadec-1-yne

> <preferred_name>
Octadecyne

> <iupac>
octadec-1-yne

> <MPID>
22041

> <dsstox_substance_id>
DTXSID90212079

> <Canonical_QSARr>
CCCCCCCCCCCCCCCCC#C

> <InChI_Code_QSARr>
InChI=1S/C18H34/c1-3-5-7-9-11-13-15-17-18-16-14-12-10-8-6-4-2/h1H,4-18H2,2H3

> <InChI Key_QSARr>
IYDNQWWOZQLMRH-UHFFFAOYSA-N

> <Salt_Solvent>
?

> <BP>
313.0

$$$$
103065
  -INDIGO-08031720192D

 63 62  0  0  0  0  0  0  0  0999 V2000
   -9.6994   -0.8000    0.0000 C   0  0  0  0  0  0  0  0  0  0  0  0
   -9.0872   -2.2782    0.0000 H   0  0  0  0  0  0  0  0  0  0  0  0
  -10.3120   -2.2782    0.0000 H   0  0  0  0  0  0  0  0  0  0  0  0
   -8.3137    0.0000    0.0000 C   0  0  0  0  0  0  0  0  0  0  0  0
   -8.9263    1.4782    0.0000 H   0  0  0  0  0  0  0  0  0  0  0  0
   -7.7015    1.4782    0.0000 H   0  0  0  0  0  0  0  0  0  0  0  0
   -6.9284   -0.8000    0.0000 C   0  0  0  0  0  0  0  0  0  0  0  0
   -6.3158   -2.2782    0.0000 H   0  0  0  0  0  0  0  0  0  0  0  0
   -7.5406   -2.2782    0.0000 H   0  0  0  0  0  0  0  0  0  0  0  0
   -5.5427    0.0000    0.0000 C   0  0  0  0  0  0  0  0  0  0  0  0
   -6.1549    1.4782    0.0000 H   0  0  0  0  0  0  0  0  0  0  0  0
   -4.9301    1.4782    0.0000 H   0  0  0  0  0  0  0  0  0  0  0  0
   -4.1570   -0.8000    0.0000 C   0  0  0  0  0  0  0  0  0  0  0  0
   -3.5449   -2.2782    0.0000 H   0  0  0  0  0  0  0  0  0  0  0  0
   -4.7692   -2.2782    0.0000 H   0  0  0  0  0  0  0  0  0  0  0  0
   -2.7713    0.0000    0.0000 C   0  0  0  0  0  0  0  0  0  0  0  0
   -3.3834    1.4782    0.0000 H   0  0  0  0  0  0  0  0  0  0  0  0
   -2.1592    1.4782    0.0000 H   0  0  0  0  0  0  0  0  0  0  0  0
   -1.3856   -0.8000    0.0000 C   0  0  0  0  0  0  0  0  0  0  0  0
   -0.7735   -2.2782    0.0000 H   0  0  0  0  0  0  0  0  0  0  0  0
   -1.9977   -2.2782    0.0000 H   0  0  0  0  0  0  0  0  0  0  0  0
    0.0001    0.0000    0.0000 C   0  0  0  0  0  0  0  0  0  0  0  0
   -0.6125    1.4782    0.0000 H   0  0  0  0  0  0  0  0  0  0  0  0
    0.6123    1.4782    0.0000 H   0  0  0  0  0  0  0  0  0  0  0  0
    1.3858   -0.8000    0.0000 C   0  0  0  0  0  0  0  0  0  0  0  0
    1.9980   -2.2782    0.0000 H   0  0  0  0  0  0  0  0  0  0  0  0
    0.7732   -2.2782    0.0000 H   0  0  0  0  0  0  0  0  0  0  0  0
    2.7715    0.0000    0.0000 C   0  0  0  0  0  0  0  0  0  0  0  0
    2.1589    1.4782    0.0000 H   0  0  0  0  0  0  0  0  0  0  0  0
    3.3837    1.4782    0.0000 H   0  0  0  0  0  0  0  0  0  0  0  0
    4.1568   -0.8000    0.0000 C   0  0  0  0  0  0  0  0  0  0  0  0
    4.7694   -2.2782    0.0000 H   0  0  0  0  0  0  0  0  0  0  0  0
    3.5446   -2.2782    0.0000 H   0  0  0  0  0  0  0  0  0  0  0  0
    5.5425    0.0000    0.0000 C   0  0  0  0  0  0  0  0  0  0  0  0
    4.9303    1.4782    0.0000 H   0  0  0  0  0  0  0  0  0  0  0  0
    6.1551    1.4782    0.0000 H   0  0  0  0  0  0  0  0  0  0  0  0
    6.9282   -0.8000    0.0000 C   0  0  0  0  0  0  0  0  0  0  0  0
    7.5403   -2.2782    0.0000 H   0  0  0  0  0  0  0  0  0  0  0  0
    6.3160   -2.2782    0.0000 H   0  0  0  0  0  0  0  0  0  0  0  0
    8.3139    0.0000    0.0000 C   0  0  0  0  0  0  0  0  0  0  0  0
    7.7017    1.4782    0.0000 H   0  0  0  0  0  0  0  0  0  0  0  0
    8.9260    1.4782    0.0000 H   0  0  0  0  0  0  0  0  0  0  0  0
    9.6996   -0.8000    0.0000 C   0  0  0  0  0  0  0  0  0  0  0  0
   10.3117   -2.2782    0.0000 H   0  0  0  0  0  0  0  0  0  0  0  0
    9.0874   -2.2782    0.0000 H   0  0  0  0  0  0  0  0  0  0  0  0
   11.0853    0.0000    0.0000 C   0  0  0  0  0  0  0  0  0  0  0  0
   10.4727    1.4782    0.0000 H   0  0  0  0  0  0  0  0  0  0  0  0
   11.6974    1.4782    0.0000 H   0  0  0  0  0  0  0  0  0  0  0  0
   12.4710   -0.8000    0.0000 C   0  0  0  0  0  0  0  0  0  0  0  0
   13.0831   -2.2782    0.0000 H   0  0  0  0  0  0  0  0  0  0  0  0
   11.8584   -2.2782    0.0000 H   0  0  0  0  0  0  0  0  0  0  0  0
   13.8562    0.0000    0.0000 C   0  0  0  0  0  0  0  0  0  0  0  0
   13.2441    1.4782    0.0000 H   0  0  0  0  0  0  0  0  0  0  0  0
   14.4688    1.4782    0.0000 H   0  0  0  0  0  0  0  0  0  0  0  0
   15.2419   -0.8000    0.0000 C   0  0  0  0  0  0  0  0  0  0  0  0
   15.8545   -2.2782    0.0000 H   0  0  0  0  0  0  0  0  0  0  0  0
   14.6298   -2.2782    0.0000 H   0  0  0  0  0  0  0  0  0  0  0  0
   16.6276    0.0000    0.0000 C   0  0  0  0  0  0  0  0  0  0  0  0
   18.0133    0.8000    0.0000 H   0  0  0  0  0  0  0  0  0  0  0  0
   18.0133   -0.8000    0.0000 H   0  0  0  0  0  0  0  0  0  0  0  0
   16.6276    1.6000    0.0000 H   0  0  0  0  0  0  0  0  0  0  0  0
  -11.0851    0.0000    0.0000 O   0  0  0  0  0  0  0  0  0  0  0  0
  -12.4708   -0.8000    0.0000 H   0  0  0  0  0  0  0  0  0  0  0  0
  1  2  1  0  0  0  0
  1  3  1  0  0  0  0
  1  4  1  0  0  0  0
  4  5  1  0  0  0  0
  4  6  1  0  0  0  0
  4  7  1  0  0  0  0
  7  8  1  0  0  0  0
  7  9  1  0  0  0  0
  7 10  1  0  0  0  0
 10 11  1  0  0  0  0
 10 12  1  0  0  0  0
 10 13  1  0  0  0  0
 13 14  1  0  0  0  0
 13 15  1  0  0  0  0
 13 16  1  0  0  0  0
 16 17  1  0  0  0  0
 16 18  1  0  0  0  0
 16 19  1  0  0  0  0
 19 20  1  0  0  0  0
 19 21  1  0  0  0  0
 19 22  1  0  0  0  0
 22 23  1  0  0  0  0
 22 24  1  0  0  0  0
 22 25  1  0  0  0  0
 25 26  1  0  0  0  0
 25 27  1  0  0  0  0
 25 28  1  0  0  0  0
 28 29  1  0  0  0  0
 28 30  1  0  0  0  0
 28 31  1  0  0  0  0
 31 32  1  0  0  0  0
 31 33  1  0  0  0  0
 31 34  1  0  0  0  0
 34 35  1  0  0  0  0
 34 36  1  0  0  0  0
 34 37  1  0  0  0  0
 37 38  1  0  0  0  0
 37 39  1  0  0  0  0
 37 40  1  0  0  0  0
 40 41  1  0  0  0  0
 40 42  1  0  0  0  0
 40 43  1  0  0  0  0
 43 44  1  0  0  0  0
 43 45  1  0  0  0  0
 43 46  1  0  0  0  0
 46 47  1  0  0  0  0
 46 48  1  0  0  0  0
 46 49  1  0  0  0  0
 49 50  1  0  0  0  0
 49 51  1  0  0  0  0
 49 52  1  0  0  0  0
 52 53  1  0  0  0  0
 52 54  1  0  0  0  0
 52 55  1  0  0  0  0
 55 56  1  0  0  0  0
 55 57  1  0  0  0  0
 55 58  1  0  0  0  0
 58 59  1  0  0  0  0
 58 60  1  0  0  0  0
 58 61  1  0  0  0  0
  1 62  1  0  0  0  0
 62 63  1  0  0  0  0
M  END
> <ChemID>
103065

> <source_casrn>
629-96-9

> <CAS>
629-96-9

> <SMILES>
CCCCCCCCCCCCCCCCCCCCO

> <NAME>
1-EICOSANOL

> <preferred_name>
1-Eicosanol

> <iupac>
icosan-1-ol

> <MPID>
22045

> <dsstox_substance_id>
DTXSID0027272

> <Canonical_QSARr>
CCCCCCCCCCCCCCCCCCCCO

> <InChI_Code_QSARr>
InChI=1S/C20H42O/c1-2-3-4-5-6-7-8-9-10-11-12-13-14-15-16-17-18-19-20-21/h21H,2-20H2,1H3

> <InChI Key_QSARr>
BTFJIXJJCSYFAL-UHFFFAOYSA-N

> <Salt_Solvent>
?

> <BP>
372.0

$$$$
103069
  -INDIGO-08031720192D

 86 85  0  0  0  0  0  0  0  0999 V2000
    0.0003    0.0000    0.0000 C   0  0  0  0  0  0  0  0  0  0  0  0
    0.6122    1.4782    0.0000 H   0  0  0  0  0  0  0  0  0  0  0  0
   -0.6123    1.4782    0.0000 H   0  0  0  0  0  0  0  0  0  0  0  0
    1.3854   -0.8000    0.0000 C   0  0  0  0  0  0  0  0  0  0  0  0
    0.7735   -2.2782    0.0000 H   0  0  0  0  0  0  0  0  0  0  0  0
    1.9979   -2.2782    0.0000 H   0  0  0  0  0  0  0  0  0  0  0  0
    2.7711    0.0000    0.0000 C   0  0  0  0  0  0  0  0  0  0  0  0
    3.3837    1.4782    0.0000 H   0  0  0  0  0  0  0  0  0  0  0  0
    2.1592    1.4782    0.0000 H   0  0  0  0  0  0  0  0  0  0  0  0
    4.1569   -0.8000    0.0000 C   0  0  0  0  0  0  0  0  0  0  0  0
    3.5443   -2.2782    0.0000 H   0  0  0  0  0  0  0  0  0  0  0  0
    4.7694   -2.2782    0.0000 H   0  0  0  0  0  0  0  0  0  0  0  0
    5.5426    0.0000    0.0000 C   0  0  0  0  0  0  0  0  0  0  0  0
    6.1546    1.4782    0.0000 H   0  0  0  0  0  0  0  0  0  0  0  0
    4.9301    1.4782    0.0000 H   0  0  0  0  0  0  0  0  0  0  0  0
    6.9284   -0.8000    0.0000 C   0  0  0  0  0  0  0  0  0  0  0  0
    6.3158   -2.2782    0.0000 H   0  0  0  0  0  0  0  0  0  0  0  0
    7.5403   -2.2782    0.0000 H   0  0  0  0  0  0  0  0  0  0  0  0
    8.3141    0.0000    0.0000 C   0  0  0  0  0  0  0  0  0  0  0  0
    8.9261    1.4782    0.0000 H   0  0  0  0  0  0  0  0  0  0  0  0
    7.7016    1.4782    0.0000 H   0  0  0  0  0  0  0  0  0  0  0  0
    9.6993   -0.8000    0.0000 C   0  0  0  0  0  0  0  0  0  0  0  0
    9.0873   -2.2782    0.0000 H   0  0  0  0  0  0  0  0  0  0  0  0
   10.3118   -2.2782    0.0000 H   0  0  0  0  0  0  0  0  0  0  0  0
   11.0850    0.0000    0.0000 C   0  0  0  0  0  0  0  0  0  0  0  0
   11.6975    1.4782    0.0000 H   0  0  0  0  0  0  0  0  0  0  0  0
   10.4731    1.4782    0.0000 H   0  0  0  0  0  0  0  0  0  0  0  0
   12.4707   -0.8000    0.0000 C   0  0  0  0  0  0  0  0  0  0  0  0
   11.8582   -2.2782    0.0000 H   0  0  0  0  0  0  0  0  0  0  0  0
   13.0833   -2.2782    0.0000 H   0  0  0  0  0  0  0  0  0  0  0  0
   13.8565    0.0000    0.0000 C   0  0  0  0  0  0  0  0  0  0  0  0
   14.4684    1.4782    0.0000 H   0  0  0  0  0  0  0  0  0  0  0  0
   13.2439    1.4782    0.0000 H   0  0  0  0  0  0  0  0  0  0  0  0
   15.2422   -0.8000    0.0000 C   0  0  0  0  0  0  0  0  0  0  0  0
   14.6297   -2.2782    0.0000 H   0  0  0  0  0  0  0  0  0  0  0  0
   15.8542   -2.2782    0.0000 H   0  0  0  0  0  0  0  0  0  0  0  0
   16.6280    0.0000    0.0000 C   0  0  0  0  0  0  0  0  0  0  0  0
   17.2399    1.4782    0.0000 H   0  0  0  0  0  0  0  0  0  0  0  0
   16.0154    1.4782    0.0000 H   0  0  0  0  0  0  0  0  0  0  0  0
   18.0131   -0.8000    0.0000 C   0  0  0  0  0  0  0  0  0  0  0  0
   17.4012   -2.2782    0.0000 H   0  0  0  0  0  0  0  0  0  0  0  0
   18.6257   -2.2782    0.0000 H   0  0  0  0  0  0  0  0  0  0  0  0
   19.3989    0.0000    0.0000 C   0  0  0  0  0  0  0  0  0  0  0  0
   20.7846    0.8000    0.0000 H   0  0  0  0  0  0  0  0  0  0  0  0
   20.7846   -0.8000    0.0000 H   0  0  0  0  0  0  0  0  0  0  0  0
   19.3989    1.6000    0.0000 H   0  0  0  0  0  0  0  0  0  0  0  0
   -1.3855   -0.8000    0.0000 C   0  0  0  0  0  0  0  0  0  0  0  0
   -1.9980   -2.2782    0.0000 H   0  0  0  0  0  0  0  0  0  0  0  0
   -0.7736   -2.2782    0.0000 H   0  0  0  0  0  0  0  0  0  0  0  0
   -2.7712    0.0000    0.0000 C   0  0  0  0  0  0  0  0  0  0  0  0
   -2.1587    1.4782    0.0000 H   0  0  0  0  0  0  0  0  0  0  0  0
   -3.3838    1.4782    0.0000 H   0  0  0  0  0  0  0  0  0  0  0  0
   -4.1570   -0.8000    0.0000 C   0  0  0  0  0  0  0  0  0  0  0  0
   -4.7689   -2.2782    0.0000 H   0  0  0  0  0  0  0  0  0  0  0  0
   -3.5444   -2.2782    0.0000 H   0  0  0  0  0  0  0  0  0  0  0  0
   -5.5427    0.0000    0.0000 C   0  0  0  0  0  0  0  0  0  0  0  0
   -4.9302    1.4782    0.0000 H   0  0  0  0  0  0  0  0  0  0  0  0
   -6.1547    1.4782    0.0000 H   0  0  0  0  0  0  0  0  0  0  0  0
   -6.9285   -0.8000    0.0000 C   0  0  0  0  0  0  0  0  0  0  0  0
   -7.5404   -2.2782    0.0000 H   0  0  0  0  0  0  0  0  0  0  0  0
   -6.3159   -2.2782    0.0000 H   0  0  0  0  0  0  0  0  0  0  0  0
   -8.3136    0.0000    0.0000 C   0  0  0  0  0  0  0  0  0  0  0  0
   -7.7017    1.4782    0.0000 H   0  0  0  0  0  0  0  0  0  0  0  0
   -8.9262    1.4782    0.0000 H   0  0  0  0  0  0  0  0  0  0  0  0
   -9.6994   -0.8000    0.0000 C   0  0  0  0  0  0  0  0  0  0  0  0
  -10.3119   -2.2782    0.0000 H   0  0  0  0  0  0  0  0  0  0  0  0
   -9.0874   -2.2782    0.0000 H   0  0  0  0  0  0  0  0  0  0  0  0
  -11.0851    0.0000    0.0000 C   0  0  0  0  0  0  0  0  0  0  0  0
  -10.4726    1.4782    0.0000 H   0  0  0  0  0  0  0  0  0  0  0  0
  -11.6977    1.4782    0.0000 H   0  0  0  0  0  0  0  0  0  0  0  0
  -12.4708   -0.8000    0.0000 C   0  0  0  0  0  0  0  0  0  0  0  0
  -13.0828   -2.2782    0.0000 H   0  0  0  0  0  0  0  0  0  0  0  0
  -11.8583   -2.2782    0.0000 H   0  0  0  0  0  0  0  0  0  0  0  0
  -13.8566    0.0000    0.0000 C   0  0  0  0  0  0  0  0  0  0  0  0
  -13.2440    1.4782    0.0000 H   0  0  0  0  0  0  0  0  0  0  0  0
  -14.4685    1.4782    0.0000 H   0  0  0  0  0  0  0  0  0  0  0  0
  -15.2423   -0.8000    0.0000 C   0  0  0  0  0  0  0  0  0  0  0  0
  -15.8543   -2.2782    0.0000 H   0  0  0  0  0  0  0  0  0  0  0  0
  -14.6298   -2.2782    0.0000 H   0  0  0  0  0  0  0  0  0  0  0  0
  -16.6275    0.0000    0.0000 C   0  0  0  0  0  0  0  0  0  0  0  0
  -16.0155    1.4782    0.0000 H   0  0  0  0  0  0  0  0  0  0  0  0
  -17.2400    1.4782    0.0000 H   0  0  0  0  0  0  0  0  0  0  0  0
  -18.0132   -0.8000    0.0000 C   0  0  0  0  0  0  0  0  0  0  0  0
  -19.3990   -1.6000    0.0000 H   0  0  0  0  0  0  0  0  0  0  0  0
  -19.3990    0.0000    0.0000 H   0  0  0  0  0  0  0  0  0  0  0  0
  -18.0132   -2.4000    0.0000 H   0  0  0  0  0  0  0  0  0  0  0  0
  1  2  1  0  0  0  0
  1  3  1  0  0  0  0
  1  4  1  0  0  0  0
  4  5  1  0  0  0  0
  4  6  1  0  0  0  0
  4  7  1  0  0  0  0
  7  8  1  0  0  0  0
  7  9  1  0  0  0  0
  7 10  1  0  0  0  0
 10 11  1  0  0  0  0
 10 12  1  0  0  0  0
 10 13  1  0  0  0  0
 13 14  1  0  0  0  0
 13 15  1  0  0  0  0
 13 16  1  0  0  0  0
 16 17  1  0  0  0  0
 16 18  1  0  0  0  0
 16 19  1  0  0  0  0
 19 20  1  0  0  0  0
 19 21  1  0  0  0  0
 19 22  1  0  0  0  0
 22 23  1  0  0  0  0
 22 24  1  0  0  0  0
 22 25  1  0  0  0  0
 25 26  1  0  0  0  0
 25 27  1  0  0  0  0
 25 28  1  0  0  0  0
 28 29  1  0  0  0  0
 28 30  1  0  0  0  0
 28 31  1  0  0  0  0
 31 32  1  0  0  0  0
 31 33  1  0  0  0  0
 31 34  1  0  0  0  0
 34 35  1  0  0  0  0
 34 36  1  0  0  0  0
 34 37  1  0  0  0  0
 37 38  1  0  0  0  0
 37 39  1  0  0  0  0
 37 40  1  0  0  0  0
 40 41  1  0  0  0  0
 40 42  1  0  0  0  0
 40 43  1  0  0  0  0
 43 44  1  0  0  0  0
 43 45  1  0  0  0  0
 43 46  1  0  0  0  0
  1 47  1  0  0  0  0
 47 48  1  0  0  0  0
 47 49  1  0  0  0  0
 47 50  1  0  0  0  0
 50 51  1  0  0  0  0
 50 52  1  0  0  0  0
 50 53  1  0  0  0  0
 53 54  1  0  0  0  0
 53 55  1  0  0  0  0
 53 56  1  0  0  0  0
 56 57  1  0  0  0  0
 56 58  1  0  0  0  0
 56 59  1  0  0  0  0
 59 60  1  0  0  0  0
 59 61  1  0  0  0  0
 59 62  1  0  0  0  0
 62 63  1  0  0  0  0
 62 64  1  0  0  0  0
 62 65  1  0  0  0  0
 65 66  1  0  0  0  0
 65 67  1  0  0  0  0
 65 68  1  0  0  0  0
 68 69  1  0  0  0  0
 68 70  1  0  0  0  0
 68 71  1  0  0  0  0
 71 72  1  0  0  0  0
 71 73  1  0  0  0  0
 71 74  1  0  0  0  0
 74 75  1  0  0  0  0
 74 76  1  0  0  0  0
 74 77  1  0  0  0  0
 77 78  1  0  0  0  0
 77 79  1  0  0  0  0
 77 80  1  0  0  0  0
 80 81  1  0  0  0  0
 80 82  1  0  0  0  0
 80 83  1  0  0  0  0
 83 84  1  0  0  0  0
 83 85  1  0  0  0  0
 83 86  1  0  0  0  0
M  END
> <ChemID>
103069

> <source_casrn>
630-02-4

> <CAS>
630-02-4

> <SMILES>
CCCCCCCCCCCCCCCCCCCCCCCCCCCC

> <NAME>
OCTACOSANE

> <preferred_name>
Octacosane

> <iupac>
Octacosane

> <MPID>
22049

> <dsstox_substance_id>
DTXSID6058639

> <Canonical_QSARr>
CCCCCCCCCCCCCCCCCCCCCCCCCCCC

> <InChI_Code_QSARr>
InChI=1S/C28H58/c1-3-5-7-9-11-13-15-17-19-21-23-25-27-28-26-24-22-20-18-16-14-12-10-8-6-4-2/h3-28H2,1-2H3

> <InChI Key_QSARr>
ZYURHZPYMFLWSH-UHFFFAOYSA-N

> <Salt_Solvent>
?

> <BP>
431.6

$$$$
103073
  -INDIGO-08031720192D

 11 10  0  0  0  0  0  0  0  0999 V2000
   -0.6123   -1.4782    0.0000 I   0  0  0  0  0  0  0  0  0  0  0  0
    0.0000    0.0000    0.0000 C   0  0  0  0  0  0  0  0  0  0  0  0
    0.6123   -1.4782    0.0000 I   0  0  0  0  0  0  0  0  0  0  0  0
   -1.3856    0.8000    0.0000 C   0  0  0  0  0  0  0  0  0  0  0  0
   -2.7713    1.6000    0.0000 H   0  0  0  0  0  0  0  0  0  0  0  0
   -2.7713    0.0000    0.0000 H   0  0  0  0  0  0  0  0  0  0  0  0
   -1.3856    2.4000    0.0000 H   0  0  0  0  0  0  0  0  0  0  0  0
    1.3856    0.8000    0.0000 C   0  0  0  0  0  0  0  0  0  0  0  0
    2.7713    1.6000    0.0000 H   0  0  0  0  0  0  0  0  0  0  0  0
    2.7713    0.0000    0.0000 H   0  0  0  0  0  0  0  0  0  0  0  0
    1.3856    2.4000    0.0000 H   0  0  0  0  0  0  0  0  0  0  0  0
  1  2  1  0  0  0  0
  2  3  1  0  0  0  0
  2  4  1  0  0  0  0
  4  5  1  0  0  0  0
  4  6  1  0  0  0  0
  4  7  1  0  0  0  0
  2  8  1  0  0  0  0
  8  9  1  0  0  0  0
  8 10  1  0  0  0  0
  8 11  1  0  0  0  0
M  END
> <ChemID>
103073

> <source_casrn>
630-13-7

> <CAS>
630-13-7

> <SMILES>
CC(C)(I)I

> <NAME>
2,2-diiodopropane

> <preferred_name>
Propane, 2,2-diiodo-

> <iupac>
C3H6I2

> <MPID>
22053

> <dsstox_substance_id>
DTXSID90467385

> <Canonical_QSARr>
CC(C)(I)I

> <InChI_Code_QSARr>
InChI=1S/C3H6I2/c1-3(2,4)5/h1-2H3

> <InChI Key_QSARr>
AZUCPFMKPGFGTB-UHFFFAOYSA-N

> <Salt_Solvent>
?

> <BP>
173.0

$$$$
103077
  -INDIGO-08031720192D

  8  7  0  0  0  0  0  0  0  0999 V2000
   -0.8000    1.3856    0.0000 Cl  0  0  0  0  0  0  0  0  0  0  0  0
    0.0000    0.0000    0.0000 C   0  0  0  0  0  0  0  0  0  0  0  0
    1.6000    0.0000    0.0000 C   0  0  0  0  0  0  0  0  0  0  0  0
    3.2000    0.0000    0.0000 H   0  0  0  0  0  0  0  0  0  0  0  0
    2.4000   -1.3856    0.0000 H   0  0  0  0  0  0  0  0  0  0  0  0
    2.4000    1.3856    0.0000 Cl  0  0  0  0  0  0  0  0  0  0  0  0
   -1.6000   -0.0000    0.0000 Cl  0  0  0  0  0  0  0  0  0  0  0  0
   -0.8000   -1.3856    0.0000 Cl  0  0  0  0  0  0  0  0  0  0  0  0
  1  2  1  0  0  0  0
  2  3  1  0  0  0  0
  3  4  1  0  0  0  0
  3  5  1  0  0  0  0
  3  6  1  0  0  0  0
  2  7  1  0  0  0  0
  2  8  1  0  0  0  0
M  END
> <ChemID>
103077

> <source_casrn>
630-20-6

> <CAS>
630-20-6

> <SMILES>
ClCC(Cl)(Cl)Cl

> <NAME>
1,1,1,2-TETRACHLOROETHANE

> <preferred_name>
1,1,1,2-Tetrachloroethane

> <iupac>
1,1,1,2-tetrachloroethane

> <MPID>
22057

> <dsstox_substance_id>
DTXSID2021317

> <Canonical_QSARr>
ClCC(Cl)(Cl)Cl

> <InChI_Code_QSARr>
InChI=1S/C2H2Cl4/c3-1-2(4,5)6/h1H2

> <InChI Key_QSARr>
QVLAWKAXOMEXPM-UHFFFAOYSA-N

> <Salt_Solvent>
?

> <BP>
130.5

$$$$
103081
  -INDIGO-08031720192D

 14 13  0  0  0  0  0  0  0  0999 V2000
    1.3856   -0.8000    0.0000 C   0  0  0  0  0  0  0  0  0  0  0  0
    2.7713   -1.6000    0.0000 H   0  0  0  0  0  0  0  0  0  0  0  0
    2.7713    0.0000    0.0000 H   0  0  0  0  0  0  0  0  0  0  0  0
    0.0000    0.0000    0.0000 C   0  0  0  0  0  0  0  0  0  0  0  0
    0.6123    1.4782    0.0000 H   0  0  0  0  0  0  0  0  0  0  0  0
   -1.3856   -0.8000    0.0000 C   0  0  0  0  0  0  0  0  0  0  0  0
   -1.9980   -2.2782    0.0000 H   0  0  0  0  0  0  0  0  0  0  0  0
   -2.7713    0.0000    0.0000 C   0  0  0  0  0  0  0  0  0  0  0  0
   -4.1569    0.8000    0.0000 H   0  0  0  0  0  0  0  0  0  0  0  0
   -4.1569   -0.8000    0.0000 H   0  0  0  0  0  0  0  0  0  0  0  0
   -2.7713    1.6000    0.0000 H   0  0  0  0  0  0  0  0  0  0  0  0
   -0.7733   -2.2782    0.0000 Br  0  0  0  0  0  0  0  0  0  0  0  0
   -0.6123    1.4782    0.0000 Br  0  0  0  0  0  0  0  0  0  0  0  0
    1.3856   -2.4000    0.0000 Br  0  0  0  0  0  0  0  0  0  0  0  0
  1  2  1  0  0  0  0
  1  3  1  0  0  0  0
  1  4  1  0  0  0  0
  4  5  1  0  0  0  0
  4  6  1  0  0  0  0
  6  7  1  0  0  0  0
  6  8  1  0  0  0  0
  8  9  1  0  0  0  0
  8 10  1  0  0  0  0
  8 11  1  0  0  0  0
  6 12  1  0  0  0  0
  4 13  1  0  0  0  0
  1 14  1  0  0  0  0
M  END
> <ChemID>
103081

> <source_casrn>
632-05-3

> <CAS>
NOCAS_870736

> <SMILES>
CC(Br)C(Br)CBr

> <NAME>
Butane, 1,2,3-tribromo-

> <preferred_name>


> <iupac>


> <MPID>
22061

> <dsstox_substance_id>
DTXSID10870736

> <Canonical_QSARr>
CC(Br)C(Br)CBr

> <InChI_Code_QSARr>
InChI=1S/C4H7Br3/c1-3(6)4(7)2-5/h3-4H,2H2,1H3

> <InChI Key_QSARr>
HKTNRDJXZCCMGH-UHFFFAOYSA-N

> <Salt_Solvent>
?

> <BP>
220.0

$$$$
103085
  -INDIGO-08031720192D

 20 19  0  0  0  0  0  0  0  0999 V2000
    1.3857   -0.8000    0.0000 C   0  0  0  0  0  0  0  0  0  0  0  0
    2.7713   -0.0000    0.0000 N   0  0  0  0  0  0  0  0  0  0  0  0
    4.1570   -0.8000    0.0000 C   0  0  0  0  0  0  0  0  0  0  0  0
    5.5426   -1.6000    0.0000 H   0  0  0  0  0  0  0  0  0  0  0  0
    5.5426   -0.0000    0.0000 H   0  0  0  0  0  0  0  0  0  0  0  0
    4.1570   -2.4000    0.0000 H   0  0  0  0  0  0  0  0  0  0  0  0
    2.7713    1.6000    0.0000 C   0  0  0  0  0  0  0  0  0  0  0  0
    4.1570    2.4000    0.0000 H   0  0  0  0  0  0  0  0  0  0  0  0
    2.7713    3.2000    0.0000 H   0  0  0  0  0  0  0  0  0  0  0  0
    4.1570    0.8000    0.0000 H   0  0  0  0  0  0  0  0  0  0  0  0
    0.0000   -0.0000    0.0000 N   0  0  0  0  0  0  0  0  0  0  0  0
    0.0000    1.6000    0.0000 C   0  0  0  0  0  0  0  0  0  0  0  0
    0.0000    3.2000    0.0000 H   0  0  0  0  0  0  0  0  0  0  0  0
   -1.3856    2.4000    0.0000 H   0  0  0  0  0  0  0  0  0  0  0  0
    1.3857    2.4000    0.0000 H   0  0  0  0  0  0  0  0  0  0  0  0
   -1.3856   -0.8000    0.0000 C   0  0  0  0  0  0  0  0  0  0  0  0
   -2.7713   -1.6000    0.0000 H   0  0  0  0  0  0  0  0  0  0  0  0
   -1.3856   -2.4000    0.0000 H   0  0  0  0  0  0  0  0  0  0  0  0
   -2.7713   -0.0000    0.0000 H   0  0  0  0  0  0  0  0  0  0  0  0
    1.3857   -2.4000    0.0000 O   0  0  0  0  0  0  0  0  0  0  0  0
  1  2  1  0  0  0  0
  2  3  1  0  0  0  0
  3  4  1  0  0  0  0
  3  5  1  0  0  0  0
  3  6  1  0  0  0  0
  2  7  1  0  0  0  0
  7  8  1  0  0  0  0
  7  9  1  0  0  0  0
  7 10  1  0  0  0  0
  1 11  1  0  0  0  0
 11 12  1  0  0  0  0
 12 13  1  0  0  0  0
 12 14  1  0  0  0  0
 12 15  1  0  0  0  0
 11 16  1  0  0  0  0
 16 17  1  0  0  0  0
 16 18  1  0  0  0  0
 16 19  1  0  0  0  0
  1 20  2  0  0  0  0
M  END
> <ChemID>
103085

> <source_casrn>
632-22-4

> <CAS>
632-22-4

> <SMILES>
CN(C)C(=O)N(C)C

> <NAME>
TETRAMETHYLUREA

> <preferred_name>
Tetramethylurea

> <iupac>
1,1,3,3-Tetramethylurea

> <MPID>
22065

> <dsstox_substance_id>
DTXSID1060893

> <Canonical_QSARr>
CN(C)C(=O)N(C)C

> <InChI_Code_QSARr>
InChI=1S/C5H12N2O/c1-6(2)5(8)7(3)4/h1-4H3

> <InChI Key_QSARr>
AVQQQNCBBIEMEU-UHFFFAOYSA-N

> <Salt_Solvent>
?

> <BP>
176.5

$$$$
103089
  -INDIGO-08031720192D

 20 21  0  0  0  0  0  0  0  0999 V2000
   -2.4001    4.1569    0.0000 Cl  0  0  0  0  0  0  0  0  0  0  0  0
   -1.6000    2.7713    0.0000 C   0  0  0  0  0  0  0  0  0  0  0  0
    0.0000    2.7713    0.0000 N   0  0  0  0  0  0  0  0  0  0  0  0
    0.8000    1.3856    0.0000 C   0  0  0  0  0  0  0  0  0  0  0  0
    0.0000    0.0000    0.0000 C   0  0  0  0  0  0  0  0  0  0  0  0
    0.8000   -1.3856    0.0000 C   0  0  0  0  0  0  0  0  0  0  0  0
    0.0000   -2.7713    0.0000 H   0  0  0  0  0  0  0  0  0  0  0  0
    2.4000   -1.3856    0.0000 C   0  0  0  0  0  0  0  0  0  0  0  0
    3.2001   -2.7713    0.0000 H   0  0  0  0  0  0  0  0  0  0  0  0
    3.2001    0.0000    0.0000 C   0  0  0  0  0  0  0  0  0  0  0  0
    4.8000    0.0000    0.0000 H   0  0  0  0  0  0  0  0  0  0  0  0
    2.4000    1.3856    0.0000 C   0  0  0  0  0  0  0  0  0  0  0  0
    3.2001    2.7713    0.0000 H   0  0  0  0  0  0  0  0  0  0  0  0
   -1.6000    0.0000    0.0000 C   0  0  0  0  0  0  0  0  0  0  0  0
   -2.4001   -1.3856    0.0000 C   0  0  0  0  0  0  0  0  0  0  0  0
   -3.2000   -2.7713    0.0000 H   0  0  0  0  0  0  0  0  0  0  0  0
   -4.0000   -1.3856    0.0000 H   0  0  0  0  0  0  0  0  0  0  0  0
   -1.6000   -2.7713    0.0000 H   0  0  0  0  0  0  0  0  0  0  0  0
   -2.4001    1.3856    0.0000 C   0  0  0  0  0  0  0  0  0  0  0  0
   -4.0000    1.3856    0.0000 H   0  0  0  0  0  0  0  0  0  0  0  0
  1  2  1  0  0  0  0
  2  3  1  0  0  0  0
  3  4  2  0  0  0  0
  4  5  1  0  0  0  0
  5  6  1  0  0  0  0
  6  7  1  0  0  0  0
  6  8  2  0  0  0  0
  8  9  1  0  0  0  0
  8 10  1  0  0  0  0
 10 11  1  0  0  0  0
 10 12  2  0  0  0  0
 12  4  1  0  0  0  0
 12 13  1  0  0  0  0
  5 14  2  0  0  0  0
 14 15  1  0  0  0  0
 15 16  1  0  0  0  0
 15 17  1  0  0  0  0
 15 18  1  0  0  0  0
 14 19  1  0  0  0  0
 19  2  2  0  0  0  0
 19 20  1  0  0  0  0
M  END
> <ChemID>
103089

> <source_casrn>
634-47-9

> <CAS>
634-47-9

> <SMILES>
Cc1cc(Cl)[n]c2ccccc21

> <NAME>
2-Chloro-4-methylquinoline

> <preferred_name>
2-Chloro-4-methylquinoline

> <iupac>
2-Chloro-4-methylquinoline

> <MPID>
22069

> <dsstox_substance_id>
DTXSID00212808

> <Canonical_QSARr>
Cc1cc(Cl)[n]c2ccccc21

> <InChI_Code_QSARr>
InChI=1S/C10H8ClN/c1-7-6-10(11)12-9-5-3-2-4-8(7)9/h2-6H,1H3

> <InChI Key_QSARr>
PFEIMKNQOIFKSW-UHFFFAOYSA-N

> <Salt_Solvent>
?

> <BP>
296.0

$$$$
103093
  -INDIGO-08031720192D

 14 14  0  0  0  0  0  0  0  0999 V2000
    1.6000   -0.0000    0.0000 N   0  0  0  0  0  0  0  0  0  0  0  0
    2.4000    1.3856    0.0000 H   0  0  0  0  0  0  0  0  0  0  0  0
    2.4000   -1.3856    0.0000 H   0  0  0  0  0  0  0  0  0  0  0  0
    0.0000   -0.0000    0.0000 C   0  0  0  0  0  0  0  0  0  0  0  0
   -0.8000    1.3856    0.0000 C   0  0  0  0  0  0  0  0  0  0  0  0
    0.0000    2.7713    0.0000 Cl  0  0  0  0  0  0  0  0  0  0  0  0
   -2.4000    1.3856    0.0000 C   0  0  0  0  0  0  0  0  0  0  0  0
   -3.2000    2.7713    0.0000 H   0  0  0  0  0  0  0  0  0  0  0  0
   -3.2000   -0.0000    0.0000 C   0  0  0  0  0  0  0  0  0  0  0  0
   -4.8000   -0.0000    0.0000 Cl  0  0  0  0  0  0  0  0  0  0  0  0
   -2.4000   -1.3856    0.0000 C   0  0  0  0  0  0  0  0  0  0  0  0
   -3.2000   -2.7713    0.0000 H   0  0  0  0  0  0  0  0  0  0  0  0
   -0.8000   -1.3856    0.0000 C   0  0  0  0  0  0  0  0  0  0  0  0
    0.0000   -2.7713    0.0000 Cl  0  0  0  0  0  0  0  0  0  0  0  0
  1  2  1  0  0  0  0
  1  3  1  0  0  0  0
  1  4  1  0  0  0  0
  4  5  1  0  0  0  0
  5  6  1  0  0  0  0
  5  7  2  0  0  0  0
  7  8  1  0  0  0  0
  7  9  1  0  0  0  0
  9 10  1  0  0  0  0
  9 11  2  0  0  0  0
 11 12  1  0  0  0  0
 11 13  1  0  0  0  0
 13  4  2  0  0  0  0
 13 14  1  0  0  0  0
M  END
> <ChemID>
103093

> <source_casrn>
634-93-5

> <CAS>
634-93-5

> <SMILES>
Nc1c(Cl)cc(Cl)cc1Cl

> <NAME>
2,4,6-TRICHLOROANILINE

> <preferred_name>
2,4,6-Trichloroaniline

> <iupac>
2,4,6-trichloroaniline

> <MPID>
22073

> <dsstox_substance_id>
DTXSID6021379

> <Canonical_QSARr>
Nc1c(Cl)cc(Cl)cc1Cl

> <InChI_Code_QSARr>
InChI=1S/C6H4Cl3N/c7-3-1-4(8)6(10)5(9)2-3/h1-2H,10H2

> <InChI Key_QSARr>
NATVSFWWYVJTAZ-UHFFFAOYSA-N

> <Salt_Solvent>
?

> <BP>
262.0

$$$$
103097
  -INDIGO-08031720192D

 20 21  0  0  0  0  0  0  0  0999 V2000
   -0.0000    0.0000    0.0000 N   0  0  0  0  0  0  0  0  0  0  0  0
    1.6000    0.0000    0.0000 C   0  0  0  0  0  0  0  0  0  0  0  0
    2.4000    1.3856    0.0000 C   0  0  0  0  0  0  0  0  0  0  0  0
    1.6000    2.7713    0.0000 H   0  0  0  0  0  0  0  0  0  0  0  0
    4.0000    1.3856    0.0000 C   0  0  0  0  0  0  0  0  0  0  0  0
    4.8000    2.7713    0.0000 H   0  0  0  0  0  0  0  0  0  0  0  0
    4.8000    0.0000    0.0000 C   0  0  0  0  0  0  0  0  0  0  0  0
    6.4000    0.0000    0.0000 H   0  0  0  0  0  0  0  0  0  0  0  0
    4.0000   -1.3856    0.0000 C   0  0  0  0  0  0  0  0  0  0  0  0
    4.8000   -2.7713    0.0000 H   0  0  0  0  0  0  0  0  0  0  0  0
    2.4000   -1.3856    0.0000 C   0  0  0  0  0  0  0  0  0  0  0  0
    1.6000   -2.7713    0.0000 H   0  0  0  0  0  0  0  0  0  0  0  0
   -0.9404   -1.2944    0.0000 C   0  0  0  0  0  0  0  0  0  0  0  0
   -0.4461   -2.8161    0.0000 H   0  0  0  0  0  0  0  0  0  0  0  0
   -2.4622   -0.8000    0.0000 C   0  0  0  0  0  0  0  0  0  0  0  0
   -3.7566   -1.7405    0.0000 H   0  0  0  0  0  0  0  0  0  0  0  0
   -2.4622    0.8000    0.0000 C   0  0  0  0  0  0  0  0  0  0  0  0
   -3.7566    1.7405    0.0000 H   0  0  0  0  0  0  0  0  0  0  0  0
   -0.9404    1.2944    0.0000 C   0  0  0  0  0  0  0  0  0  0  0  0
   -0.4461    2.8161    0.0000 H   0  0  0  0  0  0  0  0  0  0  0  0
  1  2  1  0  0  0  0
  2  3  1  0  0  0  0
  3  4  1  0  0  0  0
  3  5  2  0  0  0  0
  5  6  1  0  0  0  0
  5  7  1  0  0  0  0
  7  8  1  0  0  0  0
  7  9  2  0  0  0  0
  9 10  1  0  0  0  0
  9 11  1  0  0  0  0
 11  2  2  0  0  0  0
 11 12  1  0  0  0  0
  1 13  1  0  0  0  0
 13 14  1  0  0  0  0
 13 15  2  0  0  0  0
 15 16  1  0  0  0  0
 15 17  1  0  0  0  0
 17 18  1  0  0  0  0
 17 19  2  0  0  0  0
 19  1  1  0  0  0  0
 19 20  1  0  0  0  0
M  END
> <ChemID>
103097

> <source_casrn>
635-90-5

> <CAS>
635-90-5

> <SMILES>
c1ccccc1-[n]1cccc1

> <NAME>
PYRROLE, 1-PHENYL-

> <preferred_name>
1-Phenylpyrrole

> <iupac>
1-Phenylpyrrole

> <MPID>
22077

> <dsstox_substance_id>
DTXSID60212905

> <Canonical_QSARr>
c1ccccc1-[n]1cccc1

> <InChI_Code_QSARr>
InChI=1S/C10H9N/c1-2-6-10(7-3-1)11-8-4-5-9-11/h1-9H

> <InChI Key_QSARr>
GEZGAZKEOUKLBR-UHFFFAOYSA-N

> <Salt_Solvent>
?

> <BP>
234.0

$$$$
103101
  -INDIGO-08031720192D

 13 13  0  0  0  0  0  0  0  0999 V2000
   -0.4944    1.5217    0.0000 N   0  0  0  0  0  0  0  0  0  0  0  0
    0.4460    2.8161    0.0000 H   0  0  0  0  0  0  0  0  0  0  0  0
   -0.0001   -0.0000    0.0000 C   0  0  0  0  0  0  0  0  0  0  0  0
    1.5217   -0.4944    0.0000 C   0  0  0  0  0  0  0  0  0  0  0  0
    3.0434   -0.9889    0.0000 H   0  0  0  0  0  0  0  0  0  0  0  0
    2.7108    0.5762    0.0000 H   0  0  0  0  0  0  0  0  0  0  0  0
    1.8544   -2.0594    0.0000 H   0  0  0  0  0  0  0  0  0  0  0  0
   -1.2944   -0.9405    0.0000 C   0  0  0  0  0  0  0  0  0  0  0  0
   -1.2944   -2.5405    0.0000 H   0  0  0  0  0  0  0  0  0  0  0  0
   -2.5888   -0.0000    0.0000 C   0  0  0  0  0  0  0  0  0  0  0  0
   -4.1105   -0.4944    0.0000 H   0  0  0  0  0  0  0  0  0  0  0  0
   -2.0944    1.5217    0.0000 C   0  0  0  0  0  0  0  0  0  0  0  0
   -3.0349    2.8161    0.0000 H   0  0  0  0  0  0  0  0  0  0  0  0
  1  2  1  0  0  0  0
  1  3  1  0  0  0  0
  3  4  1  0  0  0  0
  4  5  1  0  0  0  0
  4  6  1  0  0  0  0
  4  7  1  0  0  0  0
  3  8  2  0  0  0  0
  8  9  1  0  0  0  0
  8 10  1  0  0  0  0
 10 11  1  0  0  0  0
 10 12  2  0  0  0  0
 12  1  1  0  0  0  0
 12 13  1  0  0  0  0
M  END
> <ChemID>
103101

> <source_casrn>
636-41-9

> <CAS>
636-41-9

> <SMILES>
Cc1ccc[nH]1

> <NAME>
2-Methylpyrrole

> <preferred_name>
2-Methylpyrrole

> <iupac>
2-Methyl-1H-pyrrole

> <MPID>
22081

> <dsstox_substance_id>
DTXSID70212976

> <Canonical_QSARr>
Cc1ccc[nH]1

> <InChI_Code_QSARr>
InChI=1S/C5H7N/c1-5-3-2-4-6-5/h2-4,6H,1H3

> <InChI Key_QSARr>
TVCXVUHHCUYLGX-UHFFFAOYSA-N

> <Salt_Solvent>
?

> <BP>
147.0

$$$$
103105
  -INDIGO-08031720192D

 14 14  0  0  0  0  0  0  0  0999 V2000
    0.0000   -0.0000    0.0000 C   0  0  0  0  0  0  0  0  0  0  0  0
    1.6000   -0.0000    0.0000 N   0  0  0  0  0  0  0  0  0  0  0  0
    2.4000    1.3856    0.0000 O   0  0  0  0  0  0  0  0  0  0  0  0
    2.4000   -1.3856    0.0000 O   0  0  0  0  0  0  0  0  0  0  0  0
   -0.8000    1.3856    0.0000 C   0  0  0  0  0  0  0  0  0  0  0  0
    0.0000    2.7713    0.0000 H   0  0  0  0  0  0  0  0  0  0  0  0
   -2.4000    1.3856    0.0000 C   0  0  0  0  0  0  0  0  0  0  0  0
   -3.2000    2.7713    0.0000 H   0  0  0  0  0  0  0  0  0  0  0  0
   -3.2000   -0.0000    0.0000 C   0  0  0  0  0  0  0  0  0  0  0  0
   -4.8000   -0.0000    0.0000 I   0  0  0  0  0  0  0  0  0  0  0  0
   -2.4000   -1.3856    0.0000 C   0  0  0  0  0  0  0  0  0  0  0  0
   -3.2000   -2.7713    0.0000 H   0  0  0  0  0  0  0  0  0  0  0  0
   -0.8000   -1.3856    0.0000 C   0  0  0  0  0  0  0  0  0  0  0  0
    0.0000   -2.7713    0.0000 H   0  0  0  0  0  0  0  0  0  0  0  0
  1  2  1  0  0  0  0
  2  3  2  0  0  0  0
  2  4  1  0  0  0  0
  1  5  1  0  0  0  0
  5  6  1  0  0  0  0
  5  7  2  0  0  0  0
  7  8  1  0  0  0  0
  7  9  1  0  0  0  0
  9 10  1  0  0  0  0
  9 11  2  0  0  0  0
 11 12  1  0  0  0  0
 11 13  1  0  0  0  0
 13  1  2  0  0  0  0
 13 14  1  0  0  0  0
M  CHG  2   2   1   4  -1
M  END
> <ChemID>
103105

> <source_casrn>
636-98-6

> <CAS>
636-98-6

> <SMILES>
[O-][N+](=O)c1ccc(I)cc1

> <NAME>
Benzene, 1-iodo-4-nitro-

> <preferred_name>
Benzene, 1-iodo-4-nitro-

> <iupac>
1-Iodo-4-nitrobenzene

> <MPID>
22085

> <dsstox_substance_id>
DTXSID7060914

> <Canonical_QSARr>
[O-][N+](=O)c1ccc(I)cc1

> <InChI_Code_QSARr>
InChI=1S/C6H4INO2/c7-5-1-3-6(4-2-5)8(9)10/h1-4H

> <InChI Key_QSARr>
SCCCFNJTCDSLCY-UHFFFAOYSA-N

> <Salt_Solvent>
?

> <BP>
288.0

$$$$
103109
  -INDIGO-08031720192D

 22 22  0  0  0  0  0  0  0  0999 V2000
    0.8000    1.3856    0.0000 O   0  0  0  0  0  0  0  0  0  0  0  0
    2.3651    1.0530    0.0000 C   0  0  0  0  0  0  0  0  0  0  0  0
    2.5323    2.6442    0.0000 H   0  0  0  0  0  0  0  0  0  0  0  0
    3.9650    1.0530    0.0000 H   0  0  0  0  0  0  0  0  0  0  0  0
    2.5323   -0.5383    0.0000 C   0  0  0  0  0  0  0  0  0  0  0  0
    4.0973   -0.2056    0.0000 H   0  0  0  0  0  0  0  0  0  0  0  0
    3.0268   -2.0600    0.0000 H   0  0  0  0  0  0  0  0  0  0  0  0
    1.0707   -1.1890    0.0000 C   0  0  0  0  0  0  0  0  0  0  0  0
    1.8706   -2.5747    0.0000 H   0  0  0  0  0  0  0  0  0  0  0  0
   -0.2239   -2.1295    0.0000 H   0  0  0  0  0  0  0  0  0  0  0  0
   -0.0000   -0.0000    0.0000 C   0  0  0  0  0  0  0  0  0  0  0  0
   -1.0706   -1.1890    0.0000 H   0  0  0  0  0  0  0  0  0  0  0  0
   -1.2944    0.9404    0.0000 C   0  0  0  0  0  0  0  0  0  0  0  0
   -0.5310    2.3465    0.0000 H   0  0  0  0  0  0  0  0  0  0  0  0
   -1.7489    2.4746    0.0000 H   0  0  0  0  0  0  0  0  0  0  0  0
   -2.7561    0.2897    0.0000 O   0  0  0  0  0  0  0  0  0  0  0  0
   -4.0504    1.2301    0.0000 C   0  0  0  0  0  0  0  0  0  0  0  0
   -3.8832    2.8214    0.0000 O   0  0  0  0  0  0  0  0  0  0  0  0
   -5.5122    0.5794    0.0000 C   0  0  0  0  0  0  0  0  0  0  0  0
   -6.9739   -0.0714    0.0000 H   0  0  0  0  0  0  0  0  0  0  0  0
   -6.8066    1.5198    0.0000 H   0  0  0  0  0  0  0  0  0  0  0  0
   -5.6795   -1.0119    0.0000 H   0  0  0  0  0  0  0  0  0  0  0  0
  1  2  1  0  0  0  0
  2  3  1  0  0  0  0
  2  4  1  0  0  0  0
  2  5  1  0  0  0  0
  5  6  1  0  0  0  0
  5  7  1  0  0  0  0
  5  8  1  0  0  0  0
  8  9  1  0  0  0  0
  8 10  1  0  0  0  0
  8 11  1  0  0  0  0
 11  1  1  0  0  0  0
 11 12  1  0  0  0  0
 11 13  1  0  0  0  0
 13 14  1  0  0  0  0
 13 15  1  0  0  0  0
 13 16  1  0  0  0  0
 16 17  1  0  0  0  0
 17 18  2  0  0  0  0
 17 19  1  0  0  0  0
 19 20  1  0  0  0  0
 19 21  1  0  0  0  0
 19 22  1  0  0  0  0
M  END
> <ChemID>
103109

> <source_casrn>
637-64-9

> <CAS>
NOCAS_862335

> <SMILES>
CC(=O)OCC1CCCO1

> <NAME>
2-Furanmethanol, tetrahydro-, acetate

> <preferred_name>


> <iupac>


> <MPID>
22089

> <dsstox_substance_id>
DTXSID30862335

> <Canonical_QSARr>
CC(=O)OCC1CCCO1

> <InChI_Code_QSARr>
InChI=1S/C7H12O3/c1-6(8)10-5-7-3-2-4-9-7/h7H,2-5H2,1H3

> <InChI Key_QSARr>
AAQDYYFAFXGBFZ-UHFFFAOYSA-N

> <Salt_Solvent>
?

> <BP>
193.0

$$$$
103113
  -INDIGO-08031720192D

 12 12  0  0  0  0  0  0  0  0999 V2000
   -0.0000   -0.0000    0.0000 C   0  0  0  0  0  0  0  0  0  0  0  0
    0.8000   -1.3857    0.0000 C   0  0  0  0  0  0  0  0  0  0  0  0
    2.4000   -1.3857    0.0000 H   0  0  0  0  0  0  0  0  0  0  0  0
   -0.0000   -2.7713    0.0000 C   0  0  0  0  0  0  0  0  0  0  0  0
    0.8000   -4.1569    0.0000 H   0  0  0  0  0  0  0  0  0  0  0  0
   -1.6000   -2.7713    0.0000 C   0  0  0  0  0  0  0  0  0  0  0  0
   -2.4000   -4.1569    0.0000 I   0  0  0  0  0  0  0  0  0  0  0  0
   -2.4000   -1.3856    0.0000 C   0  0  0  0  0  0  0  0  0  0  0  0
   -4.0000   -1.3856    0.0000 H   0  0  0  0  0  0  0  0  0  0  0  0
   -1.6000   -0.0000    0.0000 C   0  0  0  0  0  0  0  0  0  0  0  0
   -2.4000    1.3856    0.0000 H   0  0  0  0  0  0  0  0  0  0  0  0
    0.8000    1.3856    0.0000 Cl  0  0  0  0  0  0  0  0  0  0  0  0
  1  2  1  0  0  0  0
  2  3  1  0  0  0  0
  2  4  2  0  0  0  0
  4  5  1  0  0  0  0
  4  6  1  0  0  0  0
  6  7  1  0  0  0  0
  6  8  2  0  0  0  0
  8  9  1  0  0  0  0
  8 10  1  0  0  0  0
 10  1  2  0  0  0  0
 10 11  1  0  0  0  0
  1 12  1  0  0  0  0
M  END
> <ChemID>
103113

> <source_casrn>
637-87-6

> <CAS>
637-87-6

> <SMILES>
Clc1ccc(I)cc1

> <NAME>
4-CHLOROIODOBENZENE

> <preferred_name>
Benzene, 1-chloro-4-iodo-

> <iupac>
1-Chloro-4-iodobenzene

> <MPID>
22093

> <dsstox_substance_id>
DTXSID1060928

> <Canonical_QSARr>
Clc1ccc(I)cc1

> <InChI_Code_QSARr>
InChI=1S/C6H4ClI/c7-5-1-3-6(8)4-2-5/h1-4H

> <InChI Key_QSARr>
GWQSENYKCGJTRI-UHFFFAOYSA-N

> <Salt_Solvent>
?

> <BP>
227.0

$$$$
103117
  -INDIGO-08031720192D

 15 15  0  0  0  0  0  0  0  0999 V2000
   -0.0000   -0.0000    0.0000 C   0  0  0  0  0  0  0  0  0  0  0  0
    1.0706    1.1890    0.0000 S   0  0  0  0  0  0  0  0  0  0  0  0
    2.5322    0.5382    0.0000 C   0  0  0  0  0  0  0  0  0  0  0  0
    3.9179    1.3382    0.0000 C   0  0  0  0  0  0  0  0  0  0  0  0
    5.3036    2.1382    0.0000 H   0  0  0  0  0  0  0  0  0  0  0  0
    3.9179    2.9383    0.0000 H   0  0  0  0  0  0  0  0  0  0  0  0
    5.3036    0.5382    0.0000 H   0  0  0  0  0  0  0  0  0  0  0  0
    2.3651   -1.0530    0.0000 C   0  0  0  0  0  0  0  0  0  0  0  0
    3.5540   -2.1236    0.0000 H   0  0  0  0  0  0  0  0  0  0  0  0
    0.8000   -1.3856    0.0000 C   0  0  0  0  0  0  0  0  0  0  0  0
    0.1493   -2.8473    0.0000 H   0  0  0  0  0  0  0  0  0  0  0  0
   -1.5912    0.1673    0.0000 C   0  0  0  0  0  0  0  0  0  0  0  0
   -3.1825    0.3345    0.0000 H   0  0  0  0  0  0  0  0  0  0  0  0
   -2.2420    1.6289    0.0000 H   0  0  0  0  0  0  0  0  0  0  0  0
   -2.5317   -1.1272    0.0000 H   0  0  0  0  0  0  0  0  0  0  0  0
  1  2  1  0  0  0  0
  2  3  1  0  0  0  0
  3  4  1  0  0  0  0
  4  5  1  0  0  0  0
  4  6  1  0  0  0  0
  4  7  1  0  0  0  0
  3  8  2  0  0  0  0
  8  9  1  0  0  0  0
  8 10  1  0  0  0  0
 10  1  2  0  0  0  0
 10 11  1  0  0  0  0
  1 12  1  0  0  0  0
 12 13  1  0  0  0  0
 12 14  1  0  0  0  0
 12 15  1  0  0  0  0
M  END
> <ChemID>
103117

> <source_casrn>
638-02-8

> <CAS>
638-02-8

> <SMILES>
Cc1ccc(C)[s]1

> <NAME>
2,5-DIMETHYLTHIOPHENE

> <preferred_name>
2,5-Dimethylthiophene

> <iupac>
2,5-Dimethylthiophene

> <MPID>
22097

> <dsstox_substance_id>
DTXSID2074295

> <Canonical_QSARr>
Cc1ccc(C)[s]1

> <InChI_Code_QSARr>
InChI=1S/C6H8S/c1-5-3-4-6(2)7-5/h3-4H,1-2H3

> <InChI Key_QSARr>
GWQOOADXMVQEFT-UHFFFAOYSA-N

> <Salt_Solvent>
?

> <BP>
136.5

$$$$
103122
  -INDIGO-08031720192D

 41 40  0  0  0  0  0  0  0  0999 V2000
   -4.1569    0.8000    0.0000 C   0  0  0  0  0  0  0  0  0  0  0  0
   -3.5445    2.2782    0.0000 H   0  0  0  0  0  0  0  0  0  0  0  0
   -4.7693    2.2782    0.0000 H   0  0  0  0  0  0  0  0  0  0  0  0
   -5.5426    0.0000    0.0000 C   0  0  0  0  0  0  0  0  0  0  0  0
   -6.9282    0.8000    0.0000 O   0  0  0  0  0  0  0  0  0  0  0  0
   -8.3138    0.0000    0.0000 C   0  0  0  0  0  0  0  0  0  0  0  0
   -8.9263   -1.4782    0.0000 H   0  0  0  0  0  0  0  0  0  0  0  0
   -7.7014   -1.4782    0.0000 H   0  0  0  0  0  0  0  0  0  0  0  0
   -9.6995    0.8000    0.0000 C   0  0  0  0  0  0  0  0  0  0  0  0
   -9.0871    2.2782    0.0000 H   0  0  0  0  0  0  0  0  0  0  0  0
  -10.3119    2.2782    0.0000 H   0  0  0  0  0  0  0  0  0  0  0  0
  -11.0851    0.0000    0.0000 C   0  0  0  0  0  0  0  0  0  0  0  0
  -11.6975   -1.4782    0.0000 H   0  0  0  0  0  0  0  0  0  0  0  0
  -10.4727   -1.4782    0.0000 H   0  0  0  0  0  0  0  0  0  0  0  0
  -12.4708    0.8000    0.0000 C   0  0  0  0  0  0  0  0  0  0  0  0
  -11.8583    2.2782    0.0000 H   0  0  0  0  0  0  0  0  0  0  0  0
  -13.0832    2.2782    0.0000 H   0  0  0  0  0  0  0  0  0  0  0  0
  -13.8564    0.0000    0.0000 C   0  0  0  0  0  0  0  0  0  0  0  0
  -15.2420   -0.8000    0.0000 H   0  0  0  0  0  0  0  0  0  0  0  0
  -15.2420    0.8000    0.0000 H   0  0  0  0  0  0  0  0  0  0  0  0
  -13.8564   -1.6000    0.0000 H   0  0  0  0  0  0  0  0  0  0  0  0
   -5.5426   -1.6000    0.0000 O   0  0  0  0  0  0  0  0  0  0  0  0
   -2.7713    0.0000    0.0000 C   0  0  0  0  0  0  0  0  0  0  0  0
   -3.3837   -1.4782    0.0000 H   0  0  0  0  0  0  0  0  0  0  0  0
   -2.1589   -1.4782    0.0000 H   0  0  0  0  0  0  0  0  0  0  0  0
   -1.3856    0.8000    0.0000 C   0  0  0  0  0  0  0  0  0  0  0  0
   -0.7732    2.2782    0.0000 H   0  0  0  0  0  0  0  0  0  0  0  0
   -1.9981    2.2782    0.0000 H   0  0  0  0  0  0  0  0  0  0  0  0
    0.0000    0.0000    0.0000 C   0  0  0  0  0  0  0  0  0  0  0  0
   -0.6124   -1.4782    0.0000 H   0  0  0  0  0  0  0  0  0  0  0  0
    0.6124   -1.4782    0.0000 H   0  0  0  0  0  0  0  0  0  0  0  0
    1.3856    0.8000    0.0000 C   0  0  0  0  0  0  0  0  0  0  0  0
    1.9981    2.2782    0.0000 H   0  0  0  0  0  0  0  0  0  0  0  0
    0.7732    2.2782    0.0000 H   0  0  0  0  0  0  0  0  0  0  0  0
    2.7713    0.0000    0.0000 C   0  0  0  0  0  0  0  0  0  0  0  0
    2.1589   -1.4782    0.0000 H   0  0  0  0  0  0  0  0  0  0  0  0
    3.3837   -1.4782    0.0000 H   0  0  0  0  0  0  0  0  0  0  0  0
    4.1569    0.8000    0.0000 C   0  0  0  0  0  0  0  0  0  0  0  0
    5.5426    1.6000    0.0000 H   0  0  0  0  0  0  0  0  0  0  0  0
    5.5426    0.0000    0.0000 H   0  0  0  0  0  0  0  0  0  0  0  0
    4.1569    2.4000    0.0000 H   0  0  0  0  0  0  0  0  0  0  0  0
  1  2  1  0  0  0  0
  1  3  1  0  0  0  0
  1  4  1  0  0  0  0
  4  5  1  0  0  0  0
  5  6  1  0  0  0  0
  6  7  1  0  0  0  0
  6  8  1  0  0  0  0
  6  9  1  0  0  0  0
  9 10  1  0  0  0  0
  9 11  1  0  0  0  0
  9 12  1  0  0  0  0
 12 13  1  0  0  0  0
 12 14  1  0  0  0  0
 12 15  1  0  0  0  0
 15 16  1  0  0  0  0
 15 17  1  0  0  0  0
 15 18  1  0  0  0  0
 18 19  1  0  0  0  0
 18 20  1  0  0  0  0
 18 21  1  0  0  0  0
  4 22  2  0  0  0  0
  1 23  1  0  0  0  0
 23 24  1  0  0  0  0
 23 25  1  0  0  0  0
 23 26  1  0  0  0  0
 26 27  1  0  0  0  0
 26 28  1  0  0  0  0
 26 29  1  0  0  0  0
 29 30  1  0  0  0  0
 29 31  1  0  0  0  0
 29 32  1  0  0  0  0
 32 33  1  0  0  0  0
 32 34  1  0  0  0  0
 32 35  1  0  0  0  0
 35 36  1  0  0  0  0
 35 37  1  0  0  0  0
 35 38  1  0  0  0  0
 38 39  1  0  0  0  0
 38 40  1  0  0  0  0
 38 41  1  0  0  0  0
M  END
> <ChemID>
103122

> <source_casrn>
638-25-5

> <CAS>
638-25-5

> <SMILES>
CCCCCCCC(=O)OCCCCC

> <NAME>
Octanoic acid, pentyl ester

> <preferred_name>
Octanoic acid, pentyl ester

> <iupac>
Pentyl octanoate

> <MPID>
22102

> <dsstox_substance_id>
DTXSID5060932

> <Canonical_QSARr>
CCCCCCCC(=O)OCCCCC

> <InChI_Code_QSARr>
InChI=1S/C13H26O2/c1-3-5-7-8-9-11-13(14)15-12-10-6-4-2/h3-12H2,1-2H3

> <InChI Key_QSARr>
GJWGZSBNFSBUPX-UHFFFAOYSA-N

> <Salt_Solvent>
?

> <BP>
260.2

$$$$
103127
  -INDIGO-08031720192D

 20 19  0  0  0  0  0  0  0  0999 V2000
    5.5425   -0.0000    0.0000 C   0  0  0  0  0  0  0  0  0  0  0  0
    6.9282    0.8000    0.0000 H   0  0  0  0  0  0  0  0  0  0  0  0
    5.5425   -1.6000    0.0000 O   0  0  0  0  0  0  0  0  0  0  0  0
    4.1569    0.8000    0.0000 O   0  0  0  0  0  0  0  0  0  0  0  0
    2.7712   -0.0000    0.0000 C   0  0  0  0  0  0  0  0  0  0  0  0
    3.3835   -1.4782    0.0000 H   0  0  0  0  0  0  0  0  0  0  0  0
    2.1591   -1.4782    0.0000 H   0  0  0  0  0  0  0  0  0  0  0  0
    1.3856    0.8000    0.0000 C   0  0  0  0  0  0  0  0  0  0  0  0
    0.7734    2.2782    0.0000 H   0  0  0  0  0  0  0  0  0  0  0  0
    1.9979    2.2782    0.0000 H   0  0  0  0  0  0  0  0  0  0  0  0
    0.0001   -0.0000    0.0000 C   0  0  0  0  0  0  0  0  0  0  0  0
    0.6122   -1.4782    0.0000 H   0  0  0  0  0  0  0  0  0  0  0  0
   -0.6123   -1.4782    0.0000 H   0  0  0  0  0  0  0  0  0  0  0  0
   -1.3856    0.8000    0.0000 C   0  0  0  0  0  0  0  0  0  0  0  0
   -1.9979    2.2782    0.0000 H   0  0  0  0  0  0  0  0  0  0  0  0
   -0.7733    2.2782    0.0000 H   0  0  0  0  0  0  0  0  0  0  0  0
   -2.7713   -0.0000    0.0000 C   0  0  0  0  0  0  0  0  0  0  0  0
   -4.1569   -0.8000    0.0000 H   0  0  0  0  0  0  0  0  0  0  0  0
   -4.1569    0.8000    0.0000 H   0  0  0  0  0  0  0  0  0  0  0  0
   -2.7713   -1.6000    0.0000 H   0  0  0  0  0  0  0  0  0  0  0  0
  1  2  1  0  0  0  0
  1  3  2  0  0  0  0
  1  4  1  0  0  0  0
  4  5  1  0  0  0  0
  5  6  1  0  0  0  0
  5  7  1  0  0  0  0
  5  8  1  0  0  0  0
  8  9  1  0  0  0  0
  8 10  1  0  0  0  0
  8 11  1  0  0  0  0
 11 12  1  0  0  0  0
 11 13  1  0  0  0  0
 11 14  1  0  0  0  0
 14 15  1  0  0  0  0
 14 16  1  0  0  0  0
 14 17  1  0  0  0  0
 17 18  1  0  0  0  0
 17 19  1  0  0  0  0
 17 20  1  0  0  0  0
M  END
> <ChemID>
103127

> <source_casrn>
638-49-3

> <CAS>
638-49-3

> <SMILES>
CCCCCOC=O

> <NAME>
Formic acid, pentyl ester

> <preferred_name>
Pentyl formate

> <iupac>
pentyl formate

> <MPID>
22106

> <dsstox_substance_id>
DTXSID2047698

> <Canonical_QSARr>
CCCCCOC=O

> <InChI_Code_QSARr>
InChI=1S/C6H12O2/c1-2-3-4-5-8-6-7/h6H,2-5H2,1H3

> <InChI Key_QSARr>
DIQMPQMYFZXDAX-UHFFFAOYSA-N

> <Salt_Solvent>
?

> <BP>
130.4

$$$$
103131
  -INDIGO-08031720192D

 92 91  0  0  0  0  0  0  0  0999 V2000
   -0.0003    0.0000    0.0000 C   0  0  0  0  0  0  0  0  0  0  0  0
    0.6125    1.4782    0.0000 H   0  0  0  0  0  0  0  0  0  0  0  0
   -0.6125    1.4782    0.0000 H   0  0  0  0  0  0  0  0  0  0  0  0
    1.3860   -0.8000    0.0000 C   0  0  0  0  0  0  0  0  0  0  0  0
    0.7731   -2.2782    0.0000 H   0  0  0  0  0  0  0  0  0  0  0  0
    1.9981   -2.2782    0.0000 H   0  0  0  0  0  0  0  0  0  0  0  0
    2.7716    0.0000    0.0000 C   0  0  0  0  0  0  0  0  0  0  0  0
    3.3838    1.4782    0.0000 H   0  0  0  0  0  0  0  0  0  0  0  0
    2.1587    1.4782    0.0000 H   0  0  0  0  0  0  0  0  0  0  0  0
    4.1572   -0.8000    0.0000 C   0  0  0  0  0  0  0  0  0  0  0  0
    3.5444   -2.2782    0.0000 H   0  0  0  0  0  0  0  0  0  0  0  0
    4.7694   -2.2782    0.0000 H   0  0  0  0  0  0  0  0  0  0  0  0
    5.5428    0.0000    0.0000 C   0  0  0  0  0  0  0  0  0  0  0  0
    6.1550    1.4782    0.0000 H   0  0  0  0  0  0  0  0  0  0  0  0
    4.9300    1.4782    0.0000 H   0  0  0  0  0  0  0  0  0  0  0  0
    6.9284   -0.8000    0.0000 C   0  0  0  0  0  0  0  0  0  0  0  0
    6.3156   -2.2782    0.0000 H   0  0  0  0  0  0  0  0  0  0  0  0
    7.5406   -2.2782    0.0000 H   0  0  0  0  0  0  0  0  0  0  0  0
    8.3141    0.0000    0.0000 C   0  0  0  0  0  0  0  0  0  0  0  0
    8.9262    1.4782    0.0000 H   0  0  0  0  0  0  0  0  0  0  0  0
    7.7019    1.4782    0.0000 H   0  0  0  0  0  0  0  0  0  0  0  0
    9.6997   -0.8000    0.0000 C   0  0  0  0  0  0  0  0  0  0  0  0
    9.0875   -2.2782    0.0000 H   0  0  0  0  0  0  0  0  0  0  0  0
   10.3119   -2.2782    0.0000 H   0  0  0  0  0  0  0  0  0  0  0  0
   11.0853    0.0000    0.0000 C   0  0  0  0  0  0  0  0  0  0  0  0
   11.6975    1.4782    0.0000 H   0  0  0  0  0  0  0  0  0  0  0  0
   10.4731    1.4782    0.0000 H   0  0  0  0  0  0  0  0  0  0  0  0
   12.4709   -0.8000    0.0000 C   0  0  0  0  0  0  0  0  0  0  0  0
   11.8587   -2.2782    0.0000 H   0  0  0  0  0  0  0  0  0  0  0  0
   13.0831   -2.2782    0.0000 H   0  0  0  0  0  0  0  0  0  0  0  0
   13.8565    0.0000    0.0000 C   0  0  0  0  0  0  0  0  0  0  0  0
   14.4687    1.4782    0.0000 H   0  0  0  0  0  0  0  0  0  0  0  0
   13.2443    1.4782    0.0000 H   0  0  0  0  0  0  0  0  0  0  0  0
   15.2422   -0.8000    0.0000 C   0  0  0  0  0  0  0  0  0  0  0  0
   14.6300   -2.2782    0.0000 H   0  0  0  0  0  0  0  0  0  0  0  0
   15.8543   -2.2782    0.0000 H   0  0  0  0  0  0  0  0  0  0  0  0
   16.6278    0.0000    0.0000 C   0  0  0  0  0  0  0  0  0  0  0  0
   17.2400    1.4782    0.0000 H   0  0  0  0  0  0  0  0  0  0  0  0
   16.0156    1.4782    0.0000 H   0  0  0  0  0  0  0  0  0  0  0  0
   18.0134   -0.8000    0.0000 C   0  0  0  0  0  0  0  0  0  0  0  0
   17.4012   -2.2782    0.0000 H   0  0  0  0  0  0  0  0  0  0  0  0
   18.6256   -2.2782    0.0000 H   0  0  0  0  0  0  0  0  0  0  0  0
   19.3990    0.0000    0.0000 C   0  0  0  0  0  0  0  0  0  0  0  0
   20.0112    1.4782    0.0000 H   0  0  0  0  0  0  0  0  0  0  0  0
   18.7868    1.4782    0.0000 H   0  0  0  0  0  0  0  0  0  0  0  0
   20.7846   -0.8000    0.0000 C   0  0  0  0  0  0  0  0  0  0  0  0
   22.1703   -1.6000    0.0000 H   0  0  0  0  0  0  0  0  0  0  0  0
   22.1703    0.0000    0.0000 H   0  0  0  0  0  0  0  0  0  0  0  0
   20.7846   -2.4000    0.0000 H   0  0  0  0  0  0  0  0  0  0  0  0
   -1.3859   -0.8000    0.0000 C   0  0  0  0  0  0  0  0  0  0  0  0
   -1.9981   -2.2782    0.0000 H   0  0  0  0  0  0  0  0  0  0  0  0
   -0.7731   -2.2782    0.0000 H   0  0  0  0  0  0  0  0  0  0  0  0
   -2.7716    0.0000    0.0000 C   0  0  0  0  0  0  0  0  0  0  0  0
   -2.1587    1.4782    0.0000 H   0  0  0  0  0  0  0  0  0  0  0  0
   -3.3837    1.4782    0.0000 H   0  0  0  0  0  0  0  0  0  0  0  0
   -4.1572   -0.8000    0.0000 C   0  0  0  0  0  0  0  0  0  0  0  0
   -4.7694   -2.2782    0.0000 H   0  0  0  0  0  0  0  0  0  0  0  0
   -3.5443   -2.2782    0.0000 H   0  0  0  0  0  0  0  0  0  0  0  0
   -5.5428    0.0000    0.0000 C   0  0  0  0  0  0  0  0  0  0  0  0
   -4.9299    1.4782    0.0000 H   0  0  0  0  0  0  0  0  0  0  0  0
   -6.1550    1.4782    0.0000 H   0  0  0  0  0  0  0  0  0  0  0  0
   -6.9284   -0.8000    0.0000 C   0  0  0  0  0  0  0  0  0  0  0  0
   -7.5406   -2.2782    0.0000 H   0  0  0  0  0  0  0  0  0  0  0  0
   -6.3162   -2.2782    0.0000 H   0  0  0  0  0  0  0  0  0  0  0  0
   -8.3140    0.0000    0.0000 C   0  0  0  0  0  0  0  0  0  0  0  0
   -7.7018    1.4782    0.0000 H   0  0  0  0  0  0  0  0  0  0  0  0
   -8.9262    1.4782    0.0000 H   0  0  0  0  0  0  0  0  0  0  0  0
   -9.6997   -0.8000    0.0000 C   0  0  0  0  0  0  0  0  0  0  0  0
  -10.3118   -2.2782    0.0000 H   0  0  0  0  0  0  0  0  0  0  0  0
   -9.0875   -2.2782    0.0000 H   0  0  0  0  0  0  0  0  0  0  0  0
  -11.0853    0.0000    0.0000 C   0  0  0  0  0  0  0  0  0  0  0  0
  -10.4731    1.4782    0.0000 H   0  0  0  0  0  0  0  0  0  0  0  0
  -11.6975    1.4782    0.0000 H   0  0  0  0  0  0  0  0  0  0  0  0
  -12.4709   -0.8000    0.0000 C   0  0  0  0  0  0  0  0  0  0  0  0
  -13.0831   -2.2782    0.0000 H   0  0  0  0  0  0  0  0  0  0  0  0
  -11.8587   -2.2782    0.0000 H   0  0  0  0  0  0  0  0  0  0  0  0
  -13.8565    0.0000    0.0000 C   0  0  0  0  0  0  0  0  0  0  0  0
  -13.2443    1.4782    0.0000 H   0  0  0  0  0  0  0  0  0  0  0  0
  -14.4687    1.4782    0.0000 H   0  0  0  0  0  0  0  0  0  0  0  0
  -15.2421   -0.8000    0.0000 C   0  0  0  0  0  0  0  0  0  0  0  0
  -15.8543   -2.2782    0.0000 H   0  0  0  0  0  0  0  0  0  0  0  0
  -14.6299   -2.2782    0.0000 H   0  0  0  0  0  0  0  0  0  0  0  0
  -16.6278    0.0000    0.0000 C   0  0  0  0  0  0  0  0  0  0  0  0
  -16.0156    1.4782    0.0000 H   0  0  0  0  0  0  0  0  0  0  0  0
  -17.2399    1.4782    0.0000 H   0  0  0  0  0  0  0  0  0  0  0  0
  -18.0134   -0.8000    0.0000 C   0  0  0  0  0  0  0  0  0  0  0  0
  -18.6256   -2.2782    0.0000 H   0  0  0  0  0  0  0  0  0  0  0  0
  -17.4012   -2.2782    0.0000 H   0  0  0  0  0  0  0  0  0  0  0  0
  -19.3990    0.0000    0.0000 C   0  0  0  0  0  0  0  0  0  0  0  0
  -20.7846    0.8000    0.0000 H   0  0  0  0  0  0  0  0  0  0  0  0
  -20.7846   -0.8000    0.0000 H   0  0  0  0  0  0  0  0  0  0  0  0
  -19.3990    1.6000    0.0000 H   0  0  0  0  0  0  0  0  0  0  0  0
  1  2  1  0  0  0  0
  1  3  1  0  0  0  0
  1  4  1  0  0  0  0
  4  5  1  0  0  0  0
  4  6  1  0  0  0  0
  4  7  1  0  0  0  0
  7  8  1  0  0  0  0
  7  9  1  0  0  0  0
  7 10  1  0  0  0  0
 10 11  1  0  0  0  0
 10 12  1  0  0  0  0
 10 13  1  0  0  0  0
 13 14  1  0  0  0  0
 13 15  1  0  0  0  0
 13 16  1  0  0  0  0
 16 17  1  0  0  0  0
 16 18  1  0  0  0  0
 16 19  1  0  0  0  0
 19 20  1  0  0  0  0
 19 21  1  0  0  0  0
 19 22  1  0  0  0  0
 22 23  1  0  0  0  0
 22 24  1  0  0  0  0
 22 25  1  0  0  0  0
 25 26  1  0  0  0  0
 25 27  1  0  0  0  0
 25 28  1  0  0  0  0
 28 29  1  0  0  0  0
 28 30  1  0  0  0  0
 28 31  1  0  0  0  0
 31 32  1  0  0  0  0
 31 33  1  0  0  0  0
 31 34  1  0  0  0  0
 34 35  1  0  0  0  0
 34 36  1  0  0  0  0
 34 37  1  0  0  0  0
 37 38  1  0  0  0  0
 37 39  1  0  0  0  0
 37 40  1  0  0  0  0
 40 41  1  0  0  0  0
 40 42  1  0  0  0  0
 40 43  1  0  0  0  0
 43 44  1  0  0  0  0
 43 45  1  0  0  0  0
 43 46  1  0  0  0  0
 46 47  1  0  0  0  0
 46 48  1  0  0  0  0
 46 49  1  0  0  0  0
  1 50  1  0  0  0  0
 50 51  1  0  0  0  0
 50 52  1  0  0  0  0
 50 53  1  0  0  0  0
 53 54  1  0  0  0  0
 53 55  1  0  0  0  0
 53 56  1  0  0  0  0
 56 57  1  0  0  0  0
 56 58  1  0  0  0  0
 56 59  1  0  0  0  0
 59 60  1  0  0  0  0
 59 61  1  0  0  0  0
 59 62  1  0  0  0  0
 62 63  1  0  0  0  0
 62 64  1  0  0  0  0
 62 65  1  0  0  0  0
 65 66  1  0  0  0  0
 65 67  1  0  0  0  0
 65 68  1  0  0  0  0
 68 69  1  0  0  0  0
 68 70  1  0  0  0  0
 68 71  1  0  0  0  0
 71 72  1  0  0  0  0
 71 73  1  0  0  0  0
 71 74  1  0  0  0  0
 74 75  1  0  0  0  0
 74 76  1  0  0  0  0
 74 77  1  0  0  0  0
 77 78  1  0  0  0  0
 77 79  1  0  0  0  0
 77 80  1  0  0  0  0
 80 81  1  0  0  0  0
 80 82  1  0  0  0  0
 80 83  1  0  0  0  0
 83 84  1  0  0  0  0
 83 85  1  0  0  0  0
 83 86  1  0  0  0  0
 86 87  1  0  0  0  0
 86 88  1  0  0  0  0
 86 89  1  0  0  0  0
 89 90  1  0  0  0  0
 89 91  1  0  0  0  0
 89 92  1  0  0  0  0
M  END
> <ChemID>
103131

> <source_casrn>
638-68-6

> <CAS>
638-68-6

> <SMILES>
CCCCCCCCCCCCCCCCCCCCCCCCCCCCCC

> <NAME>
TRIACONTANE

> <preferred_name>
Triacontane

> <iupac>
TRIACONTANE

> <MPID>
22110

> <dsstox_substance_id>
DTXSID0060935

> <Canonical_QSARr>
CCCCCCCCCCCCCCCCCCCCCCCCCCCCCC

> <InChI_Code_QSARr>
InChI=1S/C30H62/c1-3-5-7-9-11-13-15-17-19-21-23-25-27-29-30-28-26-24-22-20-18-16-14-12-10-8-6-4-2/h3-30H2,1-2H3

> <InChI Key_QSARr>
JXTPJDDICSTXJX-UHFFFAOYSA-N

> <Salt_Solvent>
?

> <BP>
449.7

$$$$
103135
  -INDIGO-08031720192D

 25 26  0  0  0  0  0  0  0  0999 V2000
   -0.8001    1.3857    0.0000 C   0  0  0  0  0  0  0  0  0  0  0  0
   -0.0001    2.7712    0.0000 H   0  0  0  0  0  0  0  0  0  0  0  0
   -0.0001    0.0000    0.0000 C   0  0  0  0  0  0  0  0  0  0  0  0
    1.5757    0.2779    0.0000 C   0  0  0  0  0  0  0  0  0  0  0  0
    2.1229    1.7814    0.0000 C   0  0  0  0  0  0  0  0  0  0  0  0
    1.0945    3.0070    0.0000 H   0  0  0  0  0  0  0  0  0  0  0  0
    3.6987    2.0591    0.0000 C   0  0  0  0  0  0  0  0  0  0  0  0
    4.2459    3.5627    0.0000 H   0  0  0  0  0  0  0  0  0  0  0  0
    4.7270    0.8335    0.0000 C   0  0  0  0  0  0  0  0  0  0  0  0
    6.3028    1.1113    0.0000 H   0  0  0  0  0  0  0  0  0  0  0  0
    4.1798   -0.6700    0.0000 C   0  0  0  0  0  0  0  0  0  0  0  0
    5.2083   -1.8956    0.0000 H   0  0  0  0  0  0  0  0  0  0  0  0
    2.6042   -0.9478    0.0000 C   0  0  0  0  0  0  0  0  0  0  0  0
    2.0570   -2.4514    0.0000 H   0  0  0  0  0  0  0  0  0  0  0  0
   -0.8001   -1.3857    0.0000 C   0  0  0  0  0  0  0  0  0  0  0  0
   -0.2528   -2.8891    0.0000 C   0  0  0  0  0  0  0  0  0  0  0  0
    0.2944   -4.3927    0.0000 H   0  0  0  0  0  0  0  0  0  0  0  0
   -1.2812   -4.1148    0.0000 H   0  0  0  0  0  0  0  0  0  0  0  0
    1.3229   -3.1670    0.0000 H   0  0  0  0  0  0  0  0  0  0  0  0
   -2.4000   -1.3857    0.0000 C   0  0  0  0  0  0  0  0  0  0  0  0
   -3.2000   -2.7712    0.0000 H   0  0  0  0  0  0  0  0  0  0  0  0
   -3.2000    0.0000    0.0000 C   0  0  0  0  0  0  0  0  0  0  0  0
   -4.8000    0.0000    0.0000 H   0  0  0  0  0  0  0  0  0  0  0  0
   -2.4000    1.3857    0.0000 C   0  0  0  0  0  0  0  0  0  0  0  0
   -3.2000    2.7712    0.0000 H   0  0  0  0  0  0  0  0  0  0  0  0
  1  2  1  0  0  0  0
  1  3  1  0  0  0  0
  3  4  1  0  0  0  0
  4  5  1  0  0  0  0
  5  6  1  0  0  0  0
  5  7  2  0  0  0  0
  7  8  1  0  0  0  0
  7  9  1  0  0  0  0
  9 10  1  0  0  0  0
  9 11  2  0  0  0  0
 11 12  1  0  0  0  0
 11 13  1  0  0  0  0
 13  4  2  0  0  0  0
 13 14  1  0  0  0  0
  3 15  2  0  0  0  0
 15 16  1  0  0  0  0
 16 17  1  0  0  0  0
 16 18  1  0  0  0  0
 16 19  1  0  0  0  0
 15 20  1  0  0  0  0
 20 21  1  0  0  0  0
 20 22  2  0  0  0  0
 22 23  1  0  0  0  0
 22 24  1  0  0  0  0
 24  1  2  0  0  0  0
 24 25  1  0  0  0  0
M  END
> <ChemID>
103135

> <source_casrn>
643-58-3

> <CAS>
28652-72-4

> <SMILES>
Cc1ccccc1-c1ccccc1

> <NAME>
2-METHYLBIPHENYL

> <preferred_name>
Methyl biphenyl, mixed isomers

> <iupac>
2-methylbiphenyl

> <MPID>
22114

> <dsstox_substance_id>
DTXSID0025575

> <Canonical_QSARr>
Cc1ccccc1-c1ccccc1

> <InChI_Code_QSARr>
InChI=1S/C13H12/c1-11-7-5-6-10-13(11)12-8-3-2-4-9-12/h2-10H,1H3

> <InChI Key_QSARr>
ALLIZEAXNXSFGD-UHFFFAOYSA-N

> <Salt_Solvent>
?

> <BP>
255.5

$$$$
103139
  -INDIGO-08031720192D

 22 22  0  0  0  0  0  0  0  0999 V2000
   -0.8000    1.3856    0.0000 N   0  0  0  0  0  0  0  0  0  0  0  0
   -0.0001    2.7713    0.0000 N   0  0  0  0  0  0  0  0  0  0  0  0
    1.6000    2.7713    0.0000 H   0  0  0  0  0  0  0  0  0  0  0  0
   -0.8000    4.1569    0.0000 H   0  0  0  0  0  0  0  0  0  0  0  0
   -0.0001   -0.0000    0.0000 C   0  0  0  0  0  0  0  0  0  0  0  0
   -0.2089   -1.5863    0.0000 H   0  0  0  0  0  0  0  0  0  0  0  0
   -1.2693   -0.9740    0.0000 H   0  0  0  0  0  0  0  0  0  0  0  0
    1.6000   -0.0000    0.0000 C   0  0  0  0  0  0  0  0  0  0  0  0
    3.2000   -0.0000    0.0000 H   0  0  0  0  0  0  0  0  0  0  0  0
    2.4000   -1.3856    0.0000 H   0  0  0  0  0  0  0  0  0  0  0  0
    2.4000    1.3856    0.0000 H   0  0  0  0  0  0  0  0  0  0  0  0
   -2.4000    1.3856    0.0000 C   0  0  0  0  0  0  0  0  0  0  0  0
   -3.2000    2.7713    0.0000 C   0  0  0  0  0  0  0  0  0  0  0  0
   -2.4000    4.1569    0.0000 H   0  0  0  0  0  0  0  0  0  0  0  0
   -4.8001    2.7713    0.0000 C   0  0  0  0  0  0  0  0  0  0  0  0
   -5.6000    4.1569    0.0000 H   0  0  0  0  0  0  0  0  0  0  0  0
   -5.6000    1.3856    0.0000 C   0  0  0  0  0  0  0  0  0  0  0  0
   -7.2000    1.3856    0.0000 H   0  0  0  0  0  0  0  0  0  0  0  0
   -4.8001   -0.0000    0.0000 C   0  0  0  0  0  0  0  0  0  0  0  0
   -5.6000   -1.3856    0.0000 H   0  0  0  0  0  0  0  0  0  0  0  0
   -3.2000   -0.0000    0.0000 C   0  0  0  0  0  0  0  0  0  0  0  0
   -2.4000   -1.3856    0.0000 H   0  0  0  0  0  0  0  0  0  0  0  0
  1  2  1  0  0  0  0
  2  3  1  0  0  0  0
  2  4  1  0  0  0  0
  1  5  1  0  0  0  0
  5  6  1  0  0  0  0
  5  7  1  0  0  0  0
  5  8  1  0  0  0  0
  8  9  1  0  0  0  0
  8 10  1  0  0  0  0
  8 11  1  0  0  0  0
  1 12  1  0  0  0  0
 12 13  1  0  0  0  0
 13 14  1  0  0  0  0
 13 15  2  0  0  0  0
 15 16  1  0  0  0  0
 15 17  1  0  0  0  0
 17 18  1  0  0  0  0
 17 19  2  0  0  0  0
 19 20  1  0  0  0  0
 19 21  1  0  0  0  0
 21 12  2  0  0  0  0
 21 22  1  0  0  0  0
M  END
> <ChemID>
103139

> <source_casrn>
644-21-3

> <CAS>
644-21-3

> <SMILES>
CCN(N)c1ccccc1

> <NAME>
HYDRAZINE, 1-ETHYL-1-PHENYL-

> <preferred_name>
Hydrazine, 1-ethyl-1-phenyl-

> <iupac>
1-Ethyl-1-phenylhydrazine

> <MPID>
22118

> <dsstox_substance_id>
DTXSID80214648

> <Canonical_QSARr>
CCN(N)c1ccccc1

> <InChI_Code_QSARr>
InChI=1S/C8H12N2/c1-2-10(9)8-6-4-3-5-7-8/h3-7H,2,9H2,1H3

> <InChI Key_QSARr>
NQSIARGGPGHMCG-UHFFFAOYSA-N

> <Salt_Solvent>
?

> <BP>
237.0

$$$$
103143
  -INDIGO-08031720192D

 14 14  0  0  0  0  0  0  0  0999 V2000
    3.2000    2.7713    0.0000 I   0  0  0  0  0  0  0  0  0  0  0  0
    2.4000    1.3856    0.0000 C   0  0  0  0  0  0  0  0  0  0  0  0
    3.2000   -0.0000    0.0000 C   0  0  0  0  0  0  0  0  0  0  0  0
    4.8000   -0.0000    0.0000 H   0  0  0  0  0  0  0  0  0  0  0  0
    2.4000   -1.3856    0.0000 C   0  0  0  0  0  0  0  0  0  0  0  0
    3.2000   -2.7713    0.0000 H   0  0  0  0  0  0  0  0  0  0  0  0
    0.8000   -1.3856    0.0000 C   0  0  0  0  0  0  0  0  0  0  0  0
    0.0000   -2.7713    0.0000 H   0  0  0  0  0  0  0  0  0  0  0  0
    0.0000    0.0000    0.0000 C   0  0  0  0  0  0  0  0  0  0  0  0
   -1.6000    0.0000    0.0000 N   0  0  0  0  0  0  0  0  0  0  0  0
   -2.4000   -1.3856    0.0000 O   0  0  0  0  0  0  0  0  0  0  0  0
   -2.4000    1.3856    0.0000 O   0  0  0  0  0  0  0  0  0  0  0  0
    0.8000    1.3856    0.0000 C   0  0  0  0  0  0  0  0  0  0  0  0
    0.0000    2.7713    0.0000 H   0  0  0  0  0  0  0  0  0  0  0  0
  1  2  1  0  0  0  0
  2  3  1  0  0  0  0
  3  4  1  0  0  0  0
  3  5  2  0  0  0  0
  5  6  1  0  0  0  0
  5  7  1  0  0  0  0
  7  8  1  0  0  0  0
  7  9  2  0  0  0  0
  9 10  1  0  0  0  0
 10 11  1  0  0  0  0
 10 12  2  0  0  0  0
  9 13  1  0  0  0  0
 13  2  2  0  0  0  0
 13 14  1  0  0  0  0
M  CHG  2  10   1  11  -1
M  END
> <ChemID>
103143

> <source_casrn>
645-00-1

> <CAS>
645-00-1

> <SMILES>
[O-][N+](=O)c1cccc(I)c1

> <NAME>
3-IODONITROBENZENE

> <preferred_name>
1-Iodo-3-nitrobenzene

> <iupac>
1-iodo-3-nitrobenzene

> <MPID>
22122

> <dsstox_substance_id>
DTXSID5025449

> <Canonical_QSARr>
[O-][N+](=O)c1cccc(I)c1

> <InChI_Code_QSARr>
InChI=1S/C6H4INO2/c7-5-2-1-3-6(4-5)8(9)10/h1-4H

> <InChI Key_QSARr>
CBYAZOKPJYBCHE-UHFFFAOYSA-N

> <Salt_Solvent>
?

> <BP>
280.0

$$$$
103147
  -INDIGO-08031720192D

 49 48  0  0  0  0  0  0  0  0999 V2000
    0.0001    0.0000    0.0000 N   0  0  0  0  0  0  0  0  0  0  0  0
    0.8000    1.3857    0.0000 C   0  0  0  0  0  0  0  0  0  0  0  0
    0.5912    2.9719    0.0000 H   0  0  0  0  0  0  0  0  0  0  0  0
   -0.4694    2.3597    0.0000 H   0  0  0  0  0  0  0  0  0  0  0  0
    2.3756    1.6634    0.0000 C   0  0  0  0  0  0  0  0  0  0  0  0
    2.8569    0.1375    0.0000 H   0  0  0  0  0  0  0  0  0  0  0  0
    3.7949    0.9247    0.0000 H   0  0  0  0  0  0  0  0  0  0  0  0
    2.9229    3.1670    0.0000 C   0  0  0  0  0  0  0  0  0  0  0  0
    1.4193    3.7142    0.0000 H   0  0  0  0  0  0  0  0  0  0  0  0
    3.4701    4.6705    0.0000 C   0  0  0  0  0  0  0  0  0  0  0  0
    4.0174    6.1740    0.0000 H   0  0  0  0  0  0  0  0  0  0  0  0
    5.0459    4.9484    0.0000 H   0  0  0  0  0  0  0  0  0  0  0  0
    2.4417    5.8961    0.0000 H   0  0  0  0  0  0  0  0  0  0  0  0
    4.4263    2.6197    0.0000 C   0  0  0  0  0  0  0  0  0  0  0  0
    5.9299    2.0724    0.0000 H   0  0  0  0  0  0  0  0  0  0  0  0
    4.9737    1.1162    0.0000 H   0  0  0  0  0  0  0  0  0  0  0  0
    5.6520    3.6483    0.0000 H   0  0  0  0  0  0  0  0  0  0  0  0
    0.8000   -1.3857    0.0000 C   0  0  0  0  0  0  0  0  0  0  0  0
    2.2783   -1.9979    0.0000 H   0  0  0  0  0  0  0  0  0  0  0  0
    2.2783   -0.7733    0.0000 H   0  0  0  0  0  0  0  0  0  0  0  0
    0.2527   -2.8892    0.0000 C   0  0  0  0  0  0  0  0  0  0  0  0
   -1.3093   -2.5428    0.0000 H   0  0  0  0  0  0  0  0  0  0  0  0
   -1.0967   -3.7488    0.0000 H   0  0  0  0  0  0  0  0  0  0  0  0
    1.2813   -4.1149    0.0000 C   0  0  0  0  0  0  0  0  0  0  0  0
    2.5070   -3.0863    0.0000 H   0  0  0  0  0  0  0  0  0  0  0  0
    2.3097   -5.3405    0.0000 C   0  0  0  0  0  0  0  0  0  0  0  0
    3.3381   -6.5661    0.0000 H   0  0  0  0  0  0  0  0  0  0  0  0
    1.7626   -6.8440    0.0000 H   0  0  0  0  0  0  0  0  0  0  0  0
    3.8855   -5.0626    0.0000 H   0  0  0  0  0  0  0  0  0  0  0  0
    0.0556   -5.1432    0.0000 C   0  0  0  0  0  0  0  0  0  0  0  0
   -1.1700   -6.1718    0.0000 H   0  0  0  0  0  0  0  0  0  0  0  0
   -1.5201   -4.8655    0.0000 H   0  0  0  0  0  0  0  0  0  0  0  0
    0.3334   -6.7191    0.0000 H   0  0  0  0  0  0  0  0  0  0  0  0
   -1.6000    0.0000    0.0000 C   0  0  0  0  0  0  0  0  0  0  0  0
   -2.8693   -0.9739    0.0000 H   0  0  0  0  0  0  0  0  0  0  0  0
   -1.8088   -1.5863    0.0000 H   0  0  0  0  0  0  0  0  0  0  0  0
   -2.6284    1.2256    0.0000 C   0  0  0  0  0  0  0  0  0  0  0  0
   -1.5475    2.4054    0.0000 H   0  0  0  0  0  0  0  0  0  0  0  0
   -2.6982    2.8241    0.0000 H   0  0  0  0  0  0  0  0  0  0  0  0
   -4.2042    0.9479    0.0000 C   0  0  0  0  0  0  0  0  0  0  0  0
   -3.9263   -0.6279    0.0000 H   0  0  0  0  0  0  0  0  0  0  0  0
   -5.7798    0.6700    0.0000 C   0  0  0  0  0  0  0  0  0  0  0  0
   -7.3555    0.3921    0.0000 H   0  0  0  0  0  0  0  0  0  0  0  0
   -6.8084    1.8957    0.0000 H   0  0  0  0  0  0  0  0  0  0  0  0
   -6.3271   -0.8335    0.0000 H   0  0  0  0  0  0  0  0  0  0  0  0
   -4.4819    2.5236    0.0000 C   0  0  0  0  0  0  0  0  0  0  0  0
   -4.7599    4.0992    0.0000 H   0  0  0  0  0  0  0  0  0  0  0  0
   -3.4535    3.7492    0.0000 H   0  0  0  0  0  0  0  0  0  0  0  0
   -5.9855    3.0708    0.0000 H   0  0  0  0  0  0  0  0  0  0  0  0
  1  2  1  0  0  0  0
  2  3  1  0  0  0  0
  2  4  1  0  0  0  0
  2  5  1  0  0  0  0
  5  6  1  0  0  0  0
  5  7  1  0  0  0  0
  5  8  1  0  0  0  0
  8  9  1  0  0  0  0
  8 10  1  0  0  0  0
 10 11  1  0  0  0  0
 10 12  1  0  0  0  0
 10 13  1  0  0  0  0
  8 14  1  0  0  0  0
 14 15  1  0  0  0  0
 14 16  1  0  0  0  0
 14 17  1  0  0  0  0
  1 18  1  0  0  0  0
 18 19  1  0  0  0  0
 18 20  1  0  0  0  0
 18 21  1  0  0  0  0
 21 22  1  0  0  0  0
 21 23  1  0  0  0  0
 21 24  1  0  0  0  0
 24 25  1  0  0  0  0
 24 26  1  0  0  0  0
 26 27  1  0  0  0  0
 26 28  1  0  0  0  0
 26 29  1  0  0  0  0
 24 30  1  0  0  0  0
 30 31  1  0  0  0  0
 30 32  1  0  0  0  0
 30 33  1  0  0  0  0
  1 34  1  0  0  0  0
 34 35  1  0  0  0  0
 34 36  1  0  0  0  0
 34 37  1  0  0  0  0
 37 38  1  0  0  0  0
 37 39  1  0  0  0  0
 37 40  1  0  0  0  0
 40 41  1  0  0  0  0
 40 42  1  0  0  0  0
 42 43  1  0  0  0  0
 42 44  1  0  0  0  0
 42 45  1  0  0  0  0
 40 46  1  0  0  0  0
 46 47  1  0  0  0  0
 46 48  1  0  0  0  0
 46 49  1  0  0  0  0
M  END
> <ChemID>
103147

> <source_casrn>
645-41-0

> <CAS>
645-41-0

> <SMILES>
CC(C)CCN(CCC(C)C)CCC(C)C

> <NAME>
1-Butanamine, 3-methyl-N,N-bis(3-methylbutyl)-

> <preferred_name>
1-Butanamine, 3-methyl-N,N-bis(3-methylbutyl)-

> <iupac>
3-methyl-N,N-bis(3-methylbutyl)butan-1-amine

> <MPID>
22126

> <dsstox_substance_id>
DTXSID9060946

> <Canonical_QSARr>
CC(C)CCN(CCC(C)C)CCC(C)C

> <InChI_Code_QSARr>
InChI=1S/C15H33N/c1-13(2)7-10-16(11-8-14(3)4)12-9-15(5)6/h13-15H,7-12H2,1-6H3

> <InChI Key_QSARr>
QKVUSSUOYHTOFQ-UHFFFAOYSA-N

> <Salt_Solvent>
?

> <BP>
235.0

$$$$
103153
  -INDIGO-08031720192D

 11 10  0  0  0  0  0  0  0  0999 V2000
    0.0001    0.0000    0.0000 C   0  0  0  0  0  0  0  0  0  0  0  0
    1.6000    0.0000    0.0000 H   0  0  0  0  0  0  0  0  0  0  0  0
    0.8000    1.3856    0.0000 H   0  0  0  0  0  0  0  0  0  0  0  0
    0.8000   -1.3856    0.0000 H   0  0  0  0  0  0  0  0  0  0  0  0
   -1.6000    0.0000    0.0000 C   0  0  0  0  0  0  0  0  0  0  0  0
   -3.2000    0.0000    0.0000 C   0  0  0  0  0  0  0  0  0  0  0  0
   -4.8000    0.0000    0.0000 C   0  0  0  0  0  0  0  0  0  0  0  0
   -5.6001   -1.3856    0.0000 H   0  0  0  0  0  0  0  0  0  0  0  0
   -5.6001    1.3856    0.0000 C   0  0  0  0  0  0  0  0  0  0  0  0
   -7.2000    1.3856    0.0000 H   0  0  0  0  0  0  0  0  0  0  0  0
   -4.8000    2.7713    0.0000 H   0  0  0  0  0  0  0  0  0  0  0  0
  1  2  1  0  0  0  0
  1  3  1  0  0  0  0
  1  4  1  0  0  0  0
  1  5  1  0  0  0  0
  5  6  3  0  0  0  0
  6  7  1  0  0  0  0
  7  8  1  0  0  0  0
  7  9  2  0  0  0  0
  9 10  1  0  0  0  0
  9 11  1  0  0  0  0
M  END
> <ChemID>
103153

> <source_casrn>
646-05-9

> <CAS>
646-05-9

> <SMILES>
CC#CC=C

> <NAME>
1-PENTEN-3-YNE

> <preferred_name>
1-Penten-3-yne

> <iupac>
pent-1-en-3-yne

> <MPID>
22131

> <dsstox_substance_id>
DTXSID00214847

> <Canonical_QSARr>
CC#CC=C

> <InChI_Code_QSARr>
InChI=1S/C5H6/c1-3-5-4-2/h3H,1H2,2H3

> <InChI Key_QSARr>
FILUFGAZMJGNEN-UHFFFAOYSA-N

> <Salt_Solvent>
?

> <BP>
59.5

$$$$
103157
  -INDIGO-08031720192D

 27 26  0  0  0  0  0  0  0  0999 V2000
    5.5427   -0.0000    0.0000 N   0  0  0  0  0  0  0  0  0  0  0  0
    6.9282    0.8000    0.0000 H   0  0  0  0  0  0  0  0  0  0  0  0
    5.5427   -1.6000    0.0000 H   0  0  0  0  0  0  0  0  0  0  0  0
    4.1569    0.8000    0.0000 C   0  0  0  0  0  0  0  0  0  0  0  0
    3.5446    2.2782    0.0000 H   0  0  0  0  0  0  0  0  0  0  0  0
    4.7692    2.2782    0.0000 H   0  0  0  0  0  0  0  0  0  0  0  0
    2.7714   -0.0000    0.0000 C   0  0  0  0  0  0  0  0  0  0  0  0
    3.3835   -1.4782    0.0000 H   0  0  0  0  0  0  0  0  0  0  0  0
    2.1591   -1.4782    0.0000 H   0  0  0  0  0  0  0  0  0  0  0  0
    1.3856    0.8000    0.0000 C   0  0  0  0  0  0  0  0  0  0  0  0
    0.7733    2.2782    0.0000 H   0  0  0  0  0  0  0  0  0  0  0  0
    1.9980    2.2782    0.0000 H   0  0  0  0  0  0  0  0  0  0  0  0
    0.0001   -0.0000    0.0000 C   0  0  0  0  0  0  0  0  0  0  0  0
    0.6122   -1.4782    0.0000 H   0  0  0  0  0  0  0  0  0  0  0  0
   -0.6122   -1.4782    0.0000 H   0  0  0  0  0  0  0  0  0  0  0  0
   -1.3856    0.8000    0.0000 C   0  0  0  0  0  0  0  0  0  0  0  0
   -1.9980    2.2782    0.0000 H   0  0  0  0  0  0  0  0  0  0  0  0
   -0.7733    2.2782    0.0000 H   0  0  0  0  0  0  0  0  0  0  0  0
   -2.7712   -0.0000    0.0000 C   0  0  0  0  0  0  0  0  0  0  0  0
   -2.1591   -1.4782    0.0000 H   0  0  0  0  0  0  0  0  0  0  0  0
   -3.3835   -1.4782    0.0000 H   0  0  0  0  0  0  0  0  0  0  0  0
   -4.1569    0.8000    0.0000 C   0  0  0  0  0  0  0  0  0  0  0  0
   -4.7692    2.2782    0.0000 H   0  0  0  0  0  0  0  0  0  0  0  0
   -3.5446    2.2782    0.0000 H   0  0  0  0  0  0  0  0  0  0  0  0
   -5.5425   -0.0000    0.0000 N   0  0  0  0  0  0  0  0  0  0  0  0
   -6.9282    0.8000    0.0000 H   0  0  0  0  0  0  0  0  0  0  0  0
   -5.5425   -1.6000    0.0000 H   0  0  0  0  0  0  0  0  0  0  0  0
  1  2  1  0  0  0  0
  1  3  1  0  0  0  0
  1  4  1  0  0  0  0
  4  5  1  0  0  0  0
  4  6  1  0  0  0  0
  4  7  1  0  0  0  0
  7  8  1  0  0  0  0
  7  9  1  0  0  0  0
  7 10  1  0  0  0  0
 10 11  1  0  0  0  0
 10 12  1  0  0  0  0
 10 13  1  0  0  0  0
 13 14  1  0  0  0  0
 13 15  1  0  0  0  0
 13 16  1  0  0  0  0
 16 17  1  0  0  0  0
 16 18  1  0  0  0  0
 16 19  1  0  0  0  0
 19 20  1  0  0  0  0
 19 21  1  0  0  0  0
 19 22  1  0  0  0  0
 22 23  1  0  0  0  0
 22 24  1  0  0  0  0
 22 25  1  0  0  0  0
 25 26  1  0  0  0  0
 25 27  1  0  0  0  0
M  END
> <ChemID>
103157

> <source_casrn>
646-19-5

> <CAS>
646-19-5

> <SMILES>
NCCCCCCCN

> <NAME>
1,7-Diaminoheptane

> <preferred_name>
1,7-Diaminoheptane

> <iupac>
heptane-1,7-diamine

> <MPID>
22135

> <dsstox_substance_id>
DTXSID60214848

> <Canonical_QSARr>
NCCCCCCCN

> <InChI_Code_QSARr>
InChI=1S/C7H18N2/c8-6-4-2-1-3-5-7-9/h1-9H2

> <InChI Key_QSARr>
PWSKHLMYTZNYKO-UHFFFAOYSA-N

> <Salt_Solvent>
?

> <BP>
224.0

$$$$
103161
  -INDIGO-08031720192D

 14 14  0  0  0  0  0  0  0  0999 V2000
    0.0000   -0.0000    0.0000 C   0  0  0  0  0  0  0  0  0  0  0  0
    1.6000   -0.0000    0.0000 C   0  0  0  0  0  0  0  0  0  0  0  0
    2.4000    1.3856    0.0000 H   0  0  0  0  0  0  0  0  0  0  0  0
    2.4000   -1.3856    0.0000 O   0  0  0  0  0  0  0  0  0  0  0  0
   -0.8000    1.3856    0.0000 C   0  0  0  0  0  0  0  0  0  0  0  0
    0.0000    2.7713    0.0000 F   0  0  0  0  0  0  0  0  0  0  0  0
   -2.4000    1.3856    0.0000 C   0  0  0  0  0  0  0  0  0  0  0  0
   -3.2000    2.7713    0.0000 F   0  0  0  0  0  0  0  0  0  0  0  0
   -3.2000   -0.0000    0.0000 C   0  0  0  0  0  0  0  0  0  0  0  0
   -4.8000   -0.0000    0.0000 F   0  0  0  0  0  0  0  0  0  0  0  0
   -2.4000   -1.3856    0.0000 C   0  0  0  0  0  0  0  0  0  0  0  0
   -3.2000   -2.7713    0.0000 F   0  0  0  0  0  0  0  0  0  0  0  0
   -0.8000   -1.3856    0.0000 C   0  0  0  0  0  0  0  0  0  0  0  0
    0.0000   -2.7713    0.0000 F   0  0  0  0  0  0  0  0  0  0  0  0
  1  2  1  0  0  0  0
  2  3  1  0  0  0  0
  2  4  2  0  0  0  0
  1  5  1  0  0  0  0
  5  6  1  0  0  0  0
  5  7  2  0  0  0  0
  7  8  1  0  0  0  0
  7  9  1  0  0  0  0
  9 10  1  0  0  0  0
  9 11  2  0  0  0  0
 11 12  1  0  0  0  0
 11 13  1  0  0  0  0
 13  1  2  0  0  0  0
 13 14  1  0  0  0  0
M  END
> <ChemID>
103161

> <source_casrn>
653-37-2

> <CAS>
653-37-2

> <SMILES>
O=Cc1c(F)c(F)c(F)c(F)c1F

> <NAME>
PENTAFLUOR-BENZALDEHYD

> <preferred_name>
Pentafluorobenzaldehyde

> <iupac>
pentafluorobenzaldehyde

> <MPID>
22139

> <dsstox_substance_id>
DTXSID4022101

> <Canonical_QSARr>
O=Cc1c(F)c(F)c(F)c(F)c1F

> <InChI_Code_QSARr>
InChI=1S/C7HF5O/c8-3-2(1-13)4(9)6(11)7(12)5(3)10/h1H

> <InChI Key_QSARr>
QJXCFMJTJYCLFG-UHFFFAOYSA-N

> <Salt_Solvent>
?

> <BP>
167.0

$$$$
103166
  -INDIGO-08031720192D

 11 10  0  0  0  0  0  0  0  0999 V2000
   -1.3856    0.8000    0.0000 C   0  0  0  0  0  0  0  0  0  0  0  0
    0.0000    0.0000    0.0000 C   0  0  0  0  0  0  0  0  0  0  0  0
    1.3856    0.8000    0.0000 C   0  0  0  0  0  0  0  0  0  0  0  0
    2.7713    1.6000    0.0000 F   0  0  0  0  0  0  0  0  0  0  0  0
    2.7713    0.0000    0.0000 F   0  0  0  0  0  0  0  0  0  0  0  0
    1.3856    2.4000    0.0000 F   0  0  0  0  0  0  0  0  0  0  0  0
   -0.6123   -1.4782    0.0000 Cl  0  0  0  0  0  0  0  0  0  0  0  0
    0.6123   -1.4782    0.0000 F   0  0  0  0  0  0  0  0  0  0  0  0
   -2.7713    1.6000    0.0000 Cl  0  0  0  0  0  0  0  0  0  0  0  0
   -2.7713    0.0000    0.0000 F   0  0  0  0  0  0  0  0  0  0  0  0
   -1.3856    2.4000    0.0000 F   0  0  0  0  0  0  0  0  0  0  0  0
  1  2  1  0  0  0  0
  2  3  1  0  0  0  0
  3  4  1  0  0  0  0
  3  5  1  0  0  0  0
  3  6  1  0  0  0  0
  2  7  1  0  0  0  0
  2  8  1  0  0  0  0
  1  9  1  0  0  0  0
  1 10  1  0  0  0  0
  1 11  1  0  0  0  0
M  END
> <ChemID>
103166

> <source_casrn>
661-97-2

> <CAS>
NOCAS_862360

> <SMILES>
FC(F)(F)C(F)(Cl)C(F)(F)Cl

> <NAME>
Propane, 1,2-dichloro-1,1,2,3,3,3-hexafluoro-

> <preferred_name>


> <iupac>


> <MPID>
22143

> <dsstox_substance_id>
DTXSID80862360

> <Canonical_QSARr>
FC(F)(F)C(F)(Cl)C(F)(F)Cl

> <InChI_Code_QSARr>
InChI=1S/C3Cl2F6/c4-1(6,2(5,7)8)3(9,10)11

> <InChI Key_QSARr>
JSEUKVSKOHVLOV-UHFFFAOYSA-N

> <Salt_Solvent>
?

> <BP>
34.1

$$$$
103171
  -INDIGO-08031720192D

 17 17  0  0  0  0  0  0  0  0999 V2000
   -0.0001   -0.0000    0.0000 C   0  0  0  0  0  0  0  0  0  0  0  0
   -0.8001    1.3856    0.0000 C   0  0  0  0  0  0  0  0  0  0  0  0
   -0.0001    2.7713    0.0000 H   0  0  0  0  0  0  0  0  0  0  0  0
   -2.4000    1.3856    0.0000 C   0  0  0  0  0  0  0  0  0  0  0  0
   -3.2000    2.7713    0.0000 H   0  0  0  0  0  0  0  0  0  0  0  0
   -3.2000   -0.0000    0.0000 C   0  0  0  0  0  0  0  0  0  0  0  0
   -4.8000   -0.0000    0.0000 H   0  0  0  0  0  0  0  0  0  0  0  0
   -2.4000   -1.3856    0.0000 C   0  0  0  0  0  0  0  0  0  0  0  0
   -3.2000   -2.7713    0.0000 H   0  0  0  0  0  0  0  0  0  0  0  0
   -0.8001   -1.3856    0.0000 C   0  0  0  0  0  0  0  0  0  0  0  0
   -0.0001   -2.7713    0.0000 H   0  0  0  0  0  0  0  0  0  0  0  0
    1.6001   -0.0000    0.0000 C   0  0  0  0  0  0  0  0  0  0  0  0
    3.2000   -0.0000    0.0000 C   0  0  0  0  0  0  0  0  0  0  0  0
    4.8000   -0.0000    0.0000 C   0  0  0  0  0  0  0  0  0  0  0  0
    6.4000   -0.0000    0.0000 H   0  0  0  0  0  0  0  0  0  0  0  0
    5.6000   -1.3856    0.0000 H   0  0  0  0  0  0  0  0  0  0  0  0
    5.6000    1.3856    0.0000 H   0  0  0  0  0  0  0  0  0  0  0  0
  1  2  1  0  0  0  0
  2  3  1  0  0  0  0
  2  4  2  0  0  0  0
  4  5  1  0  0  0  0
  4  6  1  0  0  0  0
  6  7  1  0  0  0  0
  6  8  2  0  0  0  0
  8  9  1  0  0  0  0
  8 10  1  0  0  0  0
 10  1  2  0  0  0  0
 10 11  1  0  0  0  0
  1 12  1  0  0  0  0
 12 13  3  0  0  0  0
 13 14  1  0  0  0  0
 14 15  1  0  0  0  0
 14 16  1  0  0  0  0
 14 17  1  0  0  0  0
M  END
> <ChemID>
103171

> <source_casrn>
673-32-5

> <CAS>
673-32-5

> <SMILES>
CC#Cc1ccccc1

> <NAME>
BENZENE, 1-PROPYNYL-

> <preferred_name>
1-Phenyl-1-propyne

> <iupac>
Prop-1-ynylbenzene

> <MPID>
22148

> <dsstox_substance_id>
DTXSID10217667

> <Canonical_QSARr>
CC#Cc1ccccc1

> <InChI_Code_QSARr>
InChI=1S/C9H8/c1-2-6-9-7-4-3-5-8-9/h3-5,7-8H,1H3

> <InChI Key_QSARr>
GHUURDQYRGVEHX-UHFFFAOYSA-N

> <Salt_Solvent>
?

> <BP>
183.0

$$$$
103175
  -INDIGO-08031720192D

  9  9  0  0  0  0  0  0  0  0999 V2000
    0.0000   -0.0000    0.0000 C   0  0  0  0  0  0  0  0  0  0  0  0
    1.3857    0.8000    0.0000 N   0  0  0  0  0  0  0  0  0  0  0  0
    2.7713    0.0000    0.0000 C   0  0  0  0  0  0  0  0  0  0  0  0
    4.1569    0.8000    0.0000 F   0  0  0  0  0  0  0  0  0  0  0  0
    2.7713   -1.6000    0.0000 N   0  0  0  0  0  0  0  0  0  0  0  0
    1.3857   -2.4000    0.0000 C   0  0  0  0  0  0  0  0  0  0  0  0
    1.3857   -4.0000    0.0000 F   0  0  0  0  0  0  0  0  0  0  0  0
    0.0000   -1.6000    0.0000 N   0  0  0  0  0  0  0  0  0  0  0  0
   -1.3856    0.8000    0.0000 F   0  0  0  0  0  0  0  0  0  0  0  0
  1  2  1  0  0  0  0
  2  3  2  0  0  0  0
  3  4  1  0  0  0  0
  3  5  1  0  0  0  0
  5  6  2  0  0  0  0
  6  7  1  0  0  0  0
  6  8  1  0  0  0  0
  8  1  2  0  0  0  0
  1  9  1  0  0  0  0
M  END
> <ChemID>
103175

> <source_casrn>
675-14-9

> <CAS>
675-14-9

> <SMILES>
Fc1[n]c(F)[n]c(F)[n]1

> <NAME>
2,4,6-Trifluoro-1,3,5-triazine

> <preferred_name>
Cyanuric fluoride

> <iupac>
2,4,6-Trifluoro-1,3,5-triazine

> <MPID>
22152

> <dsstox_substance_id>
DTXSID6060975

> <Canonical_QSARr>
Fc1[n]c(F)[n]c(F)[n]1

> <InChI_Code_QSARr>
InChI=1S/C3F3N3/c4-1-7-2(5)9-3(6)8-1

> <InChI Key_QSARr>
VMKJWLXVLHBJNK-UHFFFAOYSA-N

> <Salt_Solvent>
?

> <BP>
72.8

$$$$
103179
  -INDIGO-08031720192D

 11 10  0  0  0  0  0  0  0  0999 V2000
   -1.3856    0.8000    0.0000 C   0  0  0  0  0  0  0  0  0  0  0  0
    0.0000    0.0000    0.0000 C   0  0  0  0  0  0  0  0  0  0  0  0
    1.3856    0.8000    0.0000 C   0  0  0  0  0  0  0  0  0  0  0  0
    2.7713    1.6000    0.0000 Cl  0  0  0  0  0  0  0  0  0  0  0  0
    2.7713    0.0000    0.0000 F   0  0  0  0  0  0  0  0  0  0  0  0
    1.3856    2.4000    0.0000 F   0  0  0  0  0  0  0  0  0  0  0  0
   -0.6123   -1.4782    0.0000 Cl  0  0  0  0  0  0  0  0  0  0  0  0
    0.6123   -1.4782    0.0000 Cl  0  0  0  0  0  0  0  0  0  0  0  0
   -2.7713    1.6000    0.0000 Cl  0  0  0  0  0  0  0  0  0  0  0  0
   -2.7713    0.0000    0.0000 F   0  0  0  0  0  0  0  0  0  0  0  0
   -1.3856    2.4000    0.0000 F   0  0  0  0  0  0  0  0  0  0  0  0
  1  2  1  0  0  0  0
  2  3  1  0  0  0  0
  3  4  1  0  0  0  0
  3  5  1  0  0  0  0
  3  6  1  0  0  0  0
  2  7  1  0  0  0  0
  2  8  1  0  0  0  0
  1  9  1  0  0  0  0
  1 10  1  0  0  0  0
  1 11  1  0  0  0  0
M  END
> <ChemID>
103179

> <source_casrn>
677-68-9

> <CAS>
NOCAS_865482

> <SMILES>
FC(F)(Cl)C(Cl)(Cl)C(F)(F)Cl

> <NAME>
1,2,2,3-tetrachloro-1,1,3,3-tetrafluoropropane

> <preferred_name>


> <iupac>


> <MPID>
22156

> <dsstox_substance_id>
DTXSID30865482

> <Canonical_QSARr>
FC(F)(Cl)C(Cl)(Cl)C(F)(F)Cl

> <InChI_Code_QSARr>
InChI=1S/C3Cl4F4/c4-1(5,2(6,8)9)3(7,10)11

> <InChI Key_QSARr>
LVULLLDMOZXHRF-UHFFFAOYSA-N

> <Salt_Solvent>
?

> <BP>
112.0

$$$$
103183
  -INDIGO-08031720192D

 11 10  0  0  0  0  0  0  0  0999 V2000
    1.3856    0.8000    0.0000 C   0  0  0  0  0  0  0  0  0  0  0  0
    2.7713    1.6000    0.0000 H   0  0  0  0  0  0  0  0  0  0  0  0
    2.7713    0.0000    0.0000 F   0  0  0  0  0  0  0  0  0  0  0  0
    1.3856    2.4000    0.0000 F   0  0  0  0  0  0  0  0  0  0  0  0
    0.0000    0.0000    0.0000 C   0  0  0  0  0  0  0  0  0  0  0  0
    0.6123   -1.4782    0.0000 F   0  0  0  0  0  0  0  0  0  0  0  0
   -0.6123   -1.4782    0.0000 F   0  0  0  0  0  0  0  0  0  0  0  0
   -1.3856    0.8000    0.0000 C   0  0  0  0  0  0  0  0  0  0  0  0
   -2.7713    1.6000    0.0000 H   0  0  0  0  0  0  0  0  0  0  0  0
   -2.7713    0.0000    0.0000 H   0  0  0  0  0  0  0  0  0  0  0  0
   -1.3856    2.4000    0.0000 F   0  0  0  0  0  0  0  0  0  0  0  0
  1  2  1  0  0  0  0
  1  3  1  0  0  0  0
  1  4  1  0  0  0  0
  1  5  1  0  0  0  0
  5  6  1  0  0  0  0
  5  7  1  0  0  0  0
  5  8  1  0  0  0  0
  8  9  1  0  0  0  0
  8 10  1  0  0  0  0
  8 11  1  0  0  0  0
M  END
> <ChemID>
103183

> <source_casrn>
679-86-7

> <CAS>
679-86-7

> <SMILES>
FCC(F)(F)C(F)F

> <NAME>
HFC-245 (pentafluoropropane)

> <preferred_name>
HFC-245ca

> <iupac>
1,1,2,2,3-Pentafluoropropane

> <MPID>
22160

> <dsstox_substance_id>
DTXSID3073925

> <Canonical_QSARr>
FCC(F)(F)C(F)F

> <InChI_Code_QSARr>
InChI=1S/C3H3F5/c4-1-3(7,8)2(5)6/h2H,1H2

> <InChI Key_QSARr>
AWTOFSDLNREIFS-UHFFFAOYSA-N

> <Salt_Solvent>
?

> <BP>
26.0

$$$$
103187
  -INDIGO-08031720192D

 45 44  0  0  0  0  0  0  0  0999 V2000
   -1.5999    0.0000    0.0000 O   0  0  0  0  0  0  0  0  0  0  0  0
    0.0001    0.0000    0.0000 Si  0  0  0  0  0  0  0  0  0  0  0  0
    1.5999    0.0000    0.0000 O   0  0  0  0  0  0  0  0  0  0  0  0
    2.3999   -1.3857    0.0000 C   0  0  0  0  0  0  0  0  0  0  0  0
    1.1306   -2.3597    0.0000 H   0  0  0  0  0  0  0  0  0  0  0  0
    2.1911   -2.9719    0.0000 H   0  0  0  0  0  0  0  0  0  0  0  0
    4.0000   -1.3857    0.0000 C   0  0  0  0  0  0  0  0  0  0  0  0
    5.2693   -0.4116    0.0000 H   0  0  0  0  0  0  0  0  0  0  0  0
    4.2088    0.2006    0.0000 H   0  0  0  0  0  0  0  0  0  0  0  0
    4.8000   -2.7714    0.0000 C   0  0  0  0  0  0  0  0  0  0  0  0
    5.6000   -4.1569    0.0000 H   0  0  0  0  0  0  0  0  0  0  0  0
    6.4000   -2.7714    0.0000 H   0  0  0  0  0  0  0  0  0  0  0  0
    4.0000   -4.1569    0.0000 H   0  0  0  0  0  0  0  0  0  0  0  0
    0.5472    1.5036    0.0000 O   0  0  0  0  0  0  0  0  0  0  0  0
    2.1230    1.7813    0.0000 C   0  0  0  0  0  0  0  0  0  0  0  0
    3.5421    1.0425    0.0000 H   0  0  0  0  0  0  0  0  0  0  0  0
    2.6040    0.2555    0.0000 H   0  0  0  0  0  0  0  0  0  0  0  0
    2.6701    3.2849    0.0000 C   0  0  0  0  0  0  0  0  0  0  0  0
    1.2509    4.0237    0.0000 H   0  0  0  0  0  0  0  0  0  0  0  0
    2.1890    4.8108    0.0000 H   0  0  0  0  0  0  0  0  0  0  0  0
    4.2459    3.5627    0.0000 C   0  0  0  0  0  0  0  0  0  0  0  0
    4.7931    5.0662    0.0000 H   0  0  0  0  0  0  0  0  0  0  0  0
    5.8215    3.8404    0.0000 H   0  0  0  0  0  0  0  0  0  0  0  0
    5.2744    2.3371    0.0000 H   0  0  0  0  0  0  0  0  0  0  0  0
    0.7999   -1.3857    0.0000 O   0  0  0  0  0  0  0  0  0  0  0  0
    0.0001   -2.7714    0.0000 C   0  0  0  0  0  0  0  0  0  0  0  0
    1.2695   -3.7454    0.0000 H   0  0  0  0  0  0  0  0  0  0  0  0
    0.2089   -4.3576    0.0000 H   0  0  0  0  0  0  0  0  0  0  0  0
   -1.5999   -2.7714    0.0000 C   0  0  0  0  0  0  0  0  0  0  0  0
   -2.8693   -1.7973    0.0000 H   0  0  0  0  0  0  0  0  0  0  0  0
   -1.8089   -1.1849    0.0000 H   0  0  0  0  0  0  0  0  0  0  0  0
   -2.3999   -4.1569    0.0000 C   0  0  0  0  0  0  0  0  0  0  0  0
   -3.2000   -5.5426    0.0000 H   0  0  0  0  0  0  0  0  0  0  0  0
   -4.0000   -4.1569    0.0000 H   0  0  0  0  0  0  0  0  0  0  0  0
   -1.5999   -5.5426    0.0000 H   0  0  0  0  0  0  0  0  0  0  0  0
   -2.3999    1.3857    0.0000 C   0  0  0  0  0  0  0  0  0  0  0  0
   -1.1306    2.3597    0.0000 H   0  0  0  0  0  0  0  0  0  0  0  0
   -2.1911    2.9720    0.0000 H   0  0  0  0  0  0  0  0  0  0  0  0
   -4.0000    1.3857    0.0000 C   0  0  0  0  0  0  0  0  0  0  0  0
   -5.2693    0.4117    0.0000 H   0  0  0  0  0  0  0  0  0  0  0  0
   -4.2088   -0.2007    0.0000 H   0  0  0  0  0  0  0  0  0  0  0  0
   -4.8000    2.7712    0.0000 C   0  0  0  0  0  0  0  0  0  0  0  0
   -5.6000    4.1569    0.0000 H   0  0  0  0  0  0  0  0  0  0  0  0
   -6.4000    2.7712    0.0000 H   0  0  0  0  0  0  0  0  0  0  0  0
   -4.0000    4.1569    0.0000 H   0  0  0  0  0  0  0  0  0  0  0  0
  1  2  1  0  0  0  0
  2  3  1  0  0  0  0
  3  4  1  0  0  0  0
  4  5  1  0  0  0  0
  4  6  1  0  0  0  0
  4  7  1  0  0  0  0
  7  8  1  0  0  0  0
  7  9  1  0  0  0  0
  7 10  1  0  0  0  0
 10 11  1  0  0  0  0
 10 12  1  0  0  0  0
 10 13  1  0  0  0  0
  2 14  1  0  0  0  0
 14 15  1  0  0  0  0
 15 16  1  0  0  0  0
 15 17  1  0  0  0  0
 15 18  1  0  0  0  0
 18 19  1  0  0  0  0
 18 20  1  0  0  0  0
 18 21  1  0  0  0  0
 21 22  1  0  0  0  0
 21 23  1  0  0  0  0
 21 24  1  0  0  0  0
  2 25  1  0  0  0  0
 25 26  1  0  0  0  0
 26 27  1  0  0  0  0
 26 28  1  0  0  0  0
 26 29  1  0  0  0  0
 29 30  1  0  0  0  0
 29 31  1  0  0  0  0
 29 32  1  0  0  0  0
 32 33  1  0  0  0  0
 32 34  1  0  0  0  0
 32 35  1  0  0  0  0
  1 36  1  0  0  0  0
 36 37  1  0  0  0  0
 36 38  1  0  0  0  0
 36 39  1  0  0  0  0
 39 40  1  0  0  0  0
 39 41  1  0  0  0  0
 39 42  1  0  0  0  0
 42 43  1  0  0  0  0
 42 44  1  0  0  0  0
 42 45  1  0  0  0  0
M  END
> <ChemID>
103187

> <source_casrn>
682-01-9

> <CAS>
682-01-9

> <SMILES>
CCCO[Si](OCCC)(OCCC)OCCC

> <NAME>
Tetrapropoxy silane

> <preferred_name>
Tetrapropyl orthosilicate

> <iupac>
tetrapropyl orthosilicate

> <MPID>
22164

> <dsstox_substance_id>
DTXSID9042382

> <Canonical_QSARr>
CCCO[Si](OCCC)(OCCC)OCCC

> <InChI_Code_QSARr>
InChI=1S/C12H28O4Si/c1-5-9-13-17(14-10-6-2,15-11-7-3)16-12-8-4/h5-12H2,1-4H3

> <InChI Key_QSARr>
ZQZCOBSUOFHDEE-UHFFFAOYSA-N

> <Salt_Solvent>
?

> <BP>
226.0

$$$$
103191
  -INDIGO-08031720192D

  9  8  0  0  0  0  0  0  0  0999 V2000
   -1.3856   -0.8000    0.0000 Cl  0  0  0  0  0  0  0  0  0  0  0  0
    0.0000    0.0000    0.0000 C   0  0  0  0  0  0  0  0  0  0  0  0
   -1.3856    0.8000    0.0000 H   0  0  0  0  0  0  0  0  0  0  0  0
    0.0000    1.6000    0.0000 Cl  0  0  0  0  0  0  0  0  0  0  0  0
    1.3857   -0.8000    0.0000 C   0  0  0  0  0  0  0  0  0  0  0  0
    2.7713    0.0000    0.0000 N   0  0  0  0  0  0  0  0  0  0  0  0
    4.1569   -0.8000    0.0000 H   0  0  0  0  0  0  0  0  0  0  0  0
    2.7713    1.6000    0.0000 H   0  0  0  0  0  0  0  0  0  0  0  0
    1.3857   -2.4000    0.0000 O   0  0  0  0  0  0  0  0  0  0  0  0
  1  2  1  0  0  0  0
  2  3  1  0  0  0  0
  2  4  1  0  0  0  0
  2  5  1  0  0  0  0
  5  6  1  0  0  0  0
  6  7  1  0  0  0  0
  6  8  1  0  0  0  0
  5  9  2  0  0  0  0
M  END
> <ChemID>
103191

> <source_casrn>
683-72-7

> <CAS>
683-72-7

> <SMILES>
NC(=O)C(Cl)Cl

> <NAME>
ACETAMIDE, 2,2-DICHLORO-

> <preferred_name>
2,2-Dichloroacetamide

> <iupac>
2,2-dichloroacetamide

> <MPID>
22168

> <dsstox_substance_id>
DTXSID8021561

> <Canonical_QSARr>
NC(=O)C(Cl)Cl

> <InChI_Code_QSARr>
InChI=1S/C2H3Cl2NO/c3-1(4)2(5)6/h1H,(H2,5,6)

> <InChI Key_QSARr>
WCGGWVOVFQNRRS-UHFFFAOYSA-N

> <Salt_Solvent>
?

> <BP>
234.0

$$$$
103195
  -INDIGO-08031720192D

 21 20  0  0  0  0  0  0  0  0999 V2000
    2.4000   -1.3857    0.0000 C   0  0  0  0  0  0  0  0  0  0  0  0
    3.2001   -2.7713    0.0000 H   0  0  0  0  0  0  0  0  0  0  0  0
    4.0000   -1.3857    0.0000 H   0  0  0  0  0  0  0  0  0  0  0  0
    1.6001   -2.7713    0.0000 H   0  0  0  0  0  0  0  0  0  0  0  0
    0.8000   -1.3857    0.0000 C   0  0  0  0  0  0  0  0  0  0  0  0
    0.0001   -2.7713    0.0000 O   0  0  0  0  0  0  0  0  0  0  0  0
    0.0001    0.0000    0.0000 N   0  0  0  0  0  0  0  0  0  0  0  0
    0.8000    1.3857    0.0000 C   0  0  0  0  0  0  0  0  0  0  0  0
    0.5911    2.9720    0.0000 H   0  0  0  0  0  0  0  0  0  0  0  0
   -0.4693    2.3596    0.0000 H   0  0  0  0  0  0  0  0  0  0  0  0
    2.4000    1.3857    0.0000 C   0  0  0  0  0  0  0  0  0  0  0  0
    3.2001    2.7713    0.0000 H   0  0  0  0  0  0  0  0  0  0  0  0
    4.0000    1.3857    0.0000 H   0  0  0  0  0  0  0  0  0  0  0  0
    1.6001    2.7713    0.0000 H   0  0  0  0  0  0  0  0  0  0  0  0
   -1.5999    0.0000    0.0000 C   0  0  0  0  0  0  0  0  0  0  0  0
   -1.8088    1.5863    0.0000 H   0  0  0  0  0  0  0  0  0  0  0  0
   -2.8694    0.9740    0.0000 H   0  0  0  0  0  0  0  0  0  0  0  0
   -2.4000   -1.3857    0.0000 C   0  0  0  0  0  0  0  0  0  0  0  0
   -4.0000   -1.3857    0.0000 H   0  0  0  0  0  0  0  0  0  0  0  0
   -3.2001   -2.7713    0.0000 H   0  0  0  0  0  0  0  0  0  0  0  0
   -3.1999    0.0000    0.0000 H   0  0  0  0  0  0  0  0  0  0  0  0
  1  2  1  0  0  0  0
  1  3  1  0  0  0  0
  1  4  1  0  0  0  0
  1  5  1  0  0  0  0
  5  6  2  0  0  0  0
  5  7  1  0  0  0  0
  7  8  1  0  0  0  0
  8  9  1  0  0  0  0
  8 10  1  0  0  0  0
  8 11  1  0  0  0  0
 11 12  1  0  0  0  0
 11 13  1  0  0  0  0
 11 14  1  0  0  0  0
  7 15  1  0  0  0  0
 15 16  1  0  0  0  0
 15 17  1  0  0  0  0
 15 18  1  0  0  0  0
 18 19  1  0  0  0  0
 18 20  1  0  0  0  0
 18 21  1  0  0  0  0
M  END
> <ChemID>
103195

> <source_casrn>
685-91-6

> <CAS>
685-91-6

> <SMILES>
CC(=O)N(CC)CC

> <NAME>
DIETHYLACETAMIDE

> <preferred_name>
Diethylacetamide

> <iupac>
N,N-diethylacetamide

> <MPID>
22172

> <dsstox_substance_id>
DTXSID9020459

> <Canonical_QSARr>
CC(=O)N(CC)CC

> <InChI_Code_QSARr>
InChI=1S/C6H13NO/c1-4-7(5-2)6(3)8/h4-5H2,1-3H3

> <InChI Key_QSARr>
AJFDBNQQDYLMJN-UHFFFAOYSA-N

> <Salt_Solvent>
?

> <BP>
185.5

$$$$
103199
  -INDIGO-08031720192D

  8  7  0  0  0  0  0  0  0  0999 V2000
    1.3856   -0.8000    0.0000 C   0  0  0  0  0  0  0  0  0  0  0  0
    2.7713    0.0000    0.0000 H   0  0  0  0  0  0  0  0  0  0  0  0
    1.3856   -2.4000    0.0000 H   0  0  0  0  0  0  0  0  0  0  0  0
    0.0000    0.0000    0.0000 C   0  0  0  0  0  0  0  0  0  0  0  0
    0.0000    1.6000    0.0000 H   0  0  0  0  0  0  0  0  0  0  0  0
   -1.3856   -0.8000    0.0000 C   0  0  0  0  0  0  0  0  0  0  0  0
   -2.7713   -1.6000    0.0000 C   0  0  0  0  0  0  0  0  0  0  0  0
   -4.1569   -2.4000    0.0000 H   0  0  0  0  0  0  0  0  0  0  0  0
  1  2  1  0  0  0  0
  1  3  1  0  0  0  0
  1  4  2  0  0  0  0
  4  5  1  0  0  0  0
  4  6  1  0  0  0  0
  6  7  3  0  0  0  0
  7  8  1  0  0  0  0
M  END
> <ChemID>
103199

> <source_casrn>
689-97-4

> <CAS>
689-97-4

> <SMILES>
C=CC#C

> <NAME>
1-BUTEN-3-YNE

> <preferred_name>
1-Buten-3-yne

> <iupac>
but-1-en-3-yne

> <MPID>
22176

> <dsstox_substance_id>
DTXSID4029199

> <Canonical_QSARr>
C=CC#C

> <InChI_Code_QSARr>
InChI=1S/C4H4/c1-3-4-2/h1,4H,2H2

> <InChI Key_QSARr>
WFYPICNXBKQZGB-UHFFFAOYSA-N

> <Salt_Solvent>
?

> <BP>
5.1

$$$$
103205
  -INDIGO-08031720192D

 18 17  0  0  0  0  0  0  0  0999 V2000
   -1.5035    0.5472    0.0000 C   0  0  0  0  0  0  0  0  0  0  0  0
   -1.1572    2.1093    0.0000 H   0  0  0  0  0  0  0  0  0  0  0  0
   -2.3632    1.8967    0.0000 H   0  0  0  0  0  0  0  0  0  0  0  0
   -0.0001    0.0000    0.0000 C   0  0  0  0  0  0  0  0  0  0  0  0
   -0.8000   -1.3856    0.0000 H   0  0  0  0  0  0  0  0  0  0  0  0
    1.3857   -0.8000    0.0000 C   0  0  0  0  0  0  0  0  0  0  0  0
    2.7713   -1.6000    0.0000 H   0  0  0  0  0  0  0  0  0  0  0  0
    1.3857   -2.4000    0.0000 H   0  0  0  0  0  0  0  0  0  0  0  0
    2.7713    0.0000    0.0000 H   0  0  0  0  0  0  0  0  0  0  0  0
    0.8000    1.3856    0.0000 C   0  0  0  0  0  0  0  0  0  0  0  0
    1.6000    2.7713    0.0000 H   0  0  0  0  0  0  0  0  0  0  0  0
   -0.0001    2.7713    0.0000 H   0  0  0  0  0  0  0  0  0  0  0  0
    2.4000    1.3856    0.0000 H   0  0  0  0  0  0  0  0  0  0  0  0
   -2.7292   -0.4813    0.0000 C   0  0  0  0  0  0  0  0  0  0  0  0
   -2.4513   -2.0569    0.0000 H   0  0  0  0  0  0  0  0  0  0  0  0
   -4.2327    0.0660    0.0000 C   0  0  0  0  0  0  0  0  0  0  0  0
   -5.4584   -0.9624    0.0000 H   0  0  0  0  0  0  0  0  0  0  0  0
   -4.5105    1.6417    0.0000 H   0  0  0  0  0  0  0  0  0  0  0  0
  1  2  1  0  0  0  0
  1  3  1  0  0  0  0
  1  4  1  0  0  0  0
  4  5  1  0  0  0  0
  4  6  1  0  0  0  0
  6  7  1  0  0  0  0
  6  8  1  0  0  0  0
  6  9  1  0  0  0  0
  4 10  1  0  0  0  0
 10 11  1  0  0  0  0
 10 12  1  0  0  0  0
 10 13  1  0  0  0  0
  1 14  1  0  0  0  0
 14 15  1  0  0  0  0
 14 16  2  0  0  0  0
 16 17  1  0  0  0  0
 16 18  1  0  0  0  0
M  END
> <ChemID>
103205

> <source_casrn>
691-37-2

> <CAS>
691-37-2

> <SMILES>
CC(C)CC=C

> <NAME>
4-METHYL-1-PENTENE

> <preferred_name>
4-Methyl-1-pentene

> <iupac>
4-Methylpent-1-ene

> <MPID>
22181

> <dsstox_substance_id>
DTXSID3061001

> <Canonical_QSARr>
CC(C)CC=C

> <InChI_Code_QSARr>
InChI=1S/C6H12/c1-4-5-6(2)3/h4,6H,1,5H2,2-3H3

> <InChI Key_QSARr>
WSSSPWUEQFSQQG-UHFFFAOYSA-N

> <Salt_Solvent>
?

> <BP>
53.9

$$$$
103210
  -INDIGO-08031720192D

 10  9  0  0  0  0  0  0  0  0999 V2000
    0.8001   -1.3856    0.0000 F   0  0  0  0  0  0  0  0  0  0  0  0
    0.0000   -0.0000    0.0000 C   0  0  0  0  0  0  0  0  0  0  0  0
    1.6000   -0.0000    0.0000 F   0  0  0  0  0  0  0  0  0  0  0  0
    0.8001    1.3856    0.0000 F   0  0  0  0  0  0  0  0  0  0  0  0
   -1.6000   -0.0000    0.0000 C   0  0  0  0  0  0  0  0  0  0  0  0
   -3.2000    0.0000    0.0000 C   0  0  0  0  0  0  0  0  0  0  0  0
   -4.8000    0.0000    0.0000 C   0  0  0  0  0  0  0  0  0  0  0  0
   -6.4000    0.0000    0.0000 F   0  0  0  0  0  0  0  0  0  0  0  0
   -5.5999    1.3856    0.0000 F   0  0  0  0  0  0  0  0  0  0  0  0
   -5.5999   -1.3856    0.0000 F   0  0  0  0  0  0  0  0  0  0  0  0
  1  2  1  0  0  0  0
  2  3  1  0  0  0  0
  2  4  1  0  0  0  0
  2  5  1  0  0  0  0
  5  6  3  0  0  0  0
  6  7  1  0  0  0  0
  7  8  1  0  0  0  0
  7  9  1  0  0  0  0
  7 10  1  0  0  0  0
M  END
> <ChemID>
103210

> <source_casrn>
692-50-2

> <CAS>
692-50-2

> <SMILES>
FC(F)(F)C#CC(F)(F)F

> <NAME>
2-Butyne, 1,1,1,4,4,4-hexafluoro-

> <preferred_name>
2-Butyne, 1,1,1,4,4,4-hexafluoro-

> <iupac>


> <MPID>
22185

> <dsstox_substance_id>
DTXSID3061003

> <Canonical_QSARr>
FC(F)(F)C#CC(F)(F)F

> <InChI_Code_QSARr>
InChI=1S/C4F6/c5-3(6,7)1-2-4(8,9)10

> <InChI Key_QSARr>
WBCLXFIDEDJGCC-UHFFFAOYSA-N

> <Salt_Solvent>
?

> <BP>
-24.6

$$$$
103214
  -INDIGO-08031720192D

 23 22  0  0  0  0  0  0  0  0999 V2000
    2.7713    0.0000    0.0000 C   0  0  0  0  0  0  0  0  0  0  0  0
    4.1570   -0.8000    0.0000 N   0  0  0  0  0  0  0  0  0  0  0  0
    5.5425    0.0000    0.0000 C   0  0  0  0  0  0  0  0  0  0  0  0
    4.7426    1.3856    0.0000 H   0  0  0  0  0  0  0  0  0  0  0  0
    6.9282    0.8000    0.0000 C   0  0  0  0  0  0  0  0  0  0  0  0
    8.3138    1.6000    0.0000 H   0  0  0  0  0  0  0  0  0  0  0  0
    8.3138    0.0000    0.0000 H   0  0  0  0  0  0  0  0  0  0  0  0
    6.9282    2.4000    0.0000 H   0  0  0  0  0  0  0  0  0  0  0  0
    6.3426   -1.3856    0.0000 C   0  0  0  0  0  0  0  0  0  0  0  0
    7.1425   -2.7713    0.0000 H   0  0  0  0  0  0  0  0  0  0  0  0
    5.5425   -2.7713    0.0000 H   0  0  0  0  0  0  0  0  0  0  0  0
    7.9426   -1.3856    0.0000 H   0  0  0  0  0  0  0  0  0  0  0  0
    1.3856    0.8000    0.0000 N   0  0  0  0  0  0  0  0  0  0  0  0
   -0.0001    0.0000    0.0000 C   0  0  0  0  0  0  0  0  0  0  0  0
   -1.3856   -0.8000    0.0000 H   0  0  0  0  0  0  0  0  0  0  0  0
   -0.8000    1.3856    0.0000 C   0  0  0  0  0  0  0  0  0  0  0  0
   -1.6001    2.7713    0.0000 H   0  0  0  0  0  0  0  0  0  0  0  0
   -2.4000    1.3856    0.0000 H   0  0  0  0  0  0  0  0  0  0  0  0
   -0.0001    2.7713    0.0000 H   0  0  0  0  0  0  0  0  0  0  0  0
    0.8000   -1.3856    0.0000 C   0  0  0  0  0  0  0  0  0  0  0  0
    1.5999   -2.7713    0.0000 H   0  0  0  0  0  0  0  0  0  0  0  0
   -0.0001   -2.7713    0.0000 H   0  0  0  0  0  0  0  0  0  0  0  0
    2.4000   -1.3856    0.0000 H   0  0  0  0  0  0  0  0  0  0  0  0
  1  2  2  0  0  0  0
  2  3  1  0  0  0  0
  3  4  1  0  0  0  0
  3  5  1  0  0  0  0
  5  6  1  0  0  0  0
  5  7  1  0  0  0  0
  5  8  1  0  0  0  0
  3  9  1  0  0  0  0
  9 10  1  0  0  0  0
  9 11  1  0  0  0  0
  9 12  1  0  0  0  0
  1 13  2  0  0  0  0
 13 14  1  0  0  0  0
 14 15  1  0  0  0  0
 14 16  1  0  0  0  0
 16 17  1  0  0  0  0
 16 18  1  0  0  0  0
 16 19  1  0  0  0  0
 14 20  1  0  0  0  0
 20 21  1  0  0  0  0
 20 22  1  0  0  0  0
 20 23  1  0  0  0  0
M  END
> <ChemID>
103214

> <source_casrn>
693-13-0

> <CAS>
693-13-0

> <SMILES>
CC(C)N=C=NC(C)C

> <NAME>
N,N'-METHANETETRAYLBIS-2-PROPANAMINE

> <preferred_name>
Diisopropylcarbodiimide

> <iupac>
N,N'-dipropan-2-ylcarbodiimide

> <MPID>
22189

> <dsstox_substance_id>
DTXSID4025086

> <Canonical_QSARr>
CC(C)N=C=NC(C)C

> <InChI_Code_QSARr>
InChI=1S/C7H14N2/c1-6(2)8-5-9-7(3)4/h6-7H,1-4H3

> <InChI Key_QSARr>
BDNKZNFMNDZQMI-UHFFFAOYSA-N

> <Salt_Solvent>
?

> <BP>
147.0

$$$$
103218
  -INDIGO-08031720192D

 33 32  0  0  0  0  0  0  0  0999 V2000
    8.3139    0.0000    0.0000 C   0  0  0  0  0  0  0  0  0  0  0  0
    9.6995   -0.8000    0.0000 H   0  0  0  0  0  0  0  0  0  0  0  0
    9.6995    0.8000    0.0000 H   0  0  0  0  0  0  0  0  0  0  0  0
    8.3139   -1.6000    0.0000 H   0  0  0  0  0  0  0  0  0  0  0  0
    6.9283    0.8000    0.0000 C   0  0  0  0  0  0  0  0  0  0  0  0
    6.9283    2.4000    0.0000 H   0  0  0  0  0  0  0  0  0  0  0  0
    5.5425    0.0000    0.0000 C   0  0  0  0  0  0  0  0  0  0  0  0
    5.5425   -1.6000    0.0000 H   0  0  0  0  0  0  0  0  0  0  0  0
    4.1569    0.8000    0.0000 C   0  0  0  0  0  0  0  0  0  0  0  0
    4.7692    2.2782    0.0000 H   0  0  0  0  0  0  0  0  0  0  0  0
    3.5447    2.2782    0.0000 H   0  0  0  0  0  0  0  0  0  0  0  0
    2.7713    0.0000    0.0000 C   0  0  0  0  0  0  0  0  0  0  0  0
    2.1591   -1.4782    0.0000 H   0  0  0  0  0  0  0  0  0  0  0  0
    3.3836   -1.4782    0.0000 H   0  0  0  0  0  0  0  0  0  0  0  0
    1.3858    0.8000    0.0000 C   0  0  0  0  0  0  0  0  0  0  0  0
    1.9980    2.2782    0.0000 H   0  0  0  0  0  0  0  0  0  0  0  0
    0.7733    2.2782    0.0000 H   0  0  0  0  0  0  0  0  0  0  0  0
   -0.0001    0.0000    0.0000 C   0  0  0  0  0  0  0  0  0  0  0  0
   -0.6123   -1.4782    0.0000 H   0  0  0  0  0  0  0  0  0  0  0  0
    0.6122   -1.4782    0.0000 H   0  0  0  0  0  0  0  0  0  0  0  0
   -1.3856    0.8000    0.0000 C   0  0  0  0  0  0  0  0  0  0  0  0
   -0.7734    2.2782    0.0000 H   0  0  0  0  0  0  0  0  0  0  0  0
   -1.9979    2.2782    0.0000 H   0  0  0  0  0  0  0  0  0  0  0  0
   -2.7712    0.0000    0.0000 C   0  0  0  0  0  0  0  0  0  0  0  0
   -3.3834   -1.4782    0.0000 H   0  0  0  0  0  0  0  0  0  0  0  0
   -2.1590   -1.4782    0.0000 H   0  0  0  0  0  0  0  0  0  0  0  0
   -4.1568    0.8000    0.0000 C   0  0  0  0  0  0  0  0  0  0  0  0
   -3.5446    2.2782    0.0000 H   0  0  0  0  0  0  0  0  0  0  0  0
   -4.7693    2.2782    0.0000 H   0  0  0  0  0  0  0  0  0  0  0  0
   -5.5426    0.0000    0.0000 C   0  0  0  0  0  0  0  0  0  0  0  0
   -6.9282   -0.8000    0.0000 H   0  0  0  0  0  0  0  0  0  0  0  0
   -6.9282    0.8000    0.0000 H   0  0  0  0  0  0  0  0  0  0  0  0
   -5.5426   -1.6000    0.0000 H   0  0  0  0  0  0  0  0  0  0  0  0
  1  2  1  0  0  0  0
  1  3  1  0  0  0  0
  1  4  1  0  0  0  0
  1  5  1  0  0  0  0
  5  6  1  0  0  0  0
  5  7  2  0  0  0  0
  7  8  1  0  0  0  0
  7  9  1  0  0  0  0
  9 10  1  0  0  0  0
  9 11  1  0  0  0  0
  9 12  1  0  0  0  0
 12 13  1  0  0  0  0
 12 14  1  0  0  0  0
 12 15  1  0  0  0  0
 15 16  1  0  0  0  0
 15 17  1  0  0  0  0
 15 18  1  0  0  0  0
 18 19  1  0  0  0  0
 18 20  1  0  0  0  0
 18 21  1  0  0  0  0
 21 22  1  0  0  0  0
 21 23  1  0  0  0  0
 21 24  1  0  0  0  0
 24 25  1  0  0  0  0
 24 26  1  0  0  0  0
 24 27  1  0  0  0  0
 27 28  1  0  0  0  0
 27 29  1  0  0  0  0
 27 30  1  0  0  0  0
 30 31  1  0  0  0  0
 30 32  1  0  0  0  0
 30 33  1  0  0  0  0
M  END
> <ChemID>
103218

> <source_casrn>
693-61-8|821-96-5

> <CAS>
693-61-8|821-96-5

> <SMILES>
C/C=C/CCCCCCCC

> <NAME>
2-UNDECENE, (E)-, 2-UNDECENE, (Z)-

> <preferred_name>


> <iupac>


> <MPID>
22193|22365

> <dsstox_substance_id>
DTXSID10876612|DTXSID50876611

> <Canonical_QSARr>
CC=CCCCCCCCC

> <InChI_Code_QSARr>
InChI=1S/C11H22/c1-3-5-7-9-11-10-8-6-4-2/h3,5H,4,6-11H2,1-2H3/b5-3+

> <InChI Key_QSARr>
JOHIXGUTSXXADV-HWKANZROSA-N

> <Salt_Solvent>
?

> <BP>
194.3

$$$$
103222
  -INDIGO-08031720192D

 11 11  0  0  0  0  0  0  0  0999 V2000
    1.4617    0.6508    0.0000 C   0  0  0  0  0  0  0  0  0  0  0  0
    2.9233    1.3016    0.0000 H   0  0  0  0  0  0  0  0  0  0  0  0
    1.6290    2.2420    0.0000 H   0  0  0  0  0  0  0  0  0  0  0  0
    2.7561   -0.2897    0.0000 H   0  0  0  0  0  0  0  0  0  0  0  0
    0.0000    0.0000    0.0000 C   0  0  0  0  0  0  0  0  0  0  0  0
   -0.3327   -1.5650    0.0000 C   0  0  0  0  0  0  0  0  0  0  0  0
    0.7380   -2.7541    0.0000 H   0  0  0  0  0  0  0  0  0  0  0  0
   -1.9238   -1.7323    0.0000 O   0  0  0  0  0  0  0  0  0  0  0  0
   -2.5747   -0.2706    0.0000 C   0  0  0  0  0  0  0  0  0  0  0  0
   -4.1397    0.0621    0.0000 H   0  0  0  0  0  0  0  0  0  0  0  0
   -1.3856    0.8000    0.0000 N   0  0  0  0  0  0  0  0  0  0  0  0
  1  2  1  0  0  0  0
  1  3  1  0  0  0  0
  1  4  1  0  0  0  0
  1  5  1  0  0  0  0
  5  6  2  0  0  0  0
  6  7  1  0  0  0  0
  6  8  1  0  0  0  0
  8  9  1  0  0  0  0
  9 10  1  0  0  0  0
  9 11  2  0  0  0  0
 11  5  1  0  0  0  0
M  END
> <ChemID>
103222

> <source_casrn>
693-93-6

> <CAS>
693-93-6

> <SMILES>
Cc1coc[n]1

> <NAME>
4-METHYLOXAZOL

> <preferred_name>
4-Methyloxazole

> <iupac>
4-methyl-1,3-oxazole

> <MPID>
22197

> <dsstox_substance_id>
DTXSID9022106

> <Canonical_QSARr>
Cc1coc[n]1

> <InChI_Code_QSARr>
InChI=1S/C4H5NO/c1-4-2-6-3-5-4/h2-3H,1H3

> <InChI Key_QSARr>
PUMREIFKTMLCAF-UHFFFAOYSA-N

> <Salt_Solvent>
?

> <BP>
88.0

$$$$
103227
  -INDIGO-08031720192D

 19 19  0  0  0  0  0  0  0  0999 V2000
    2.4622    0.8000    0.0000 C   0  0  0  0  0  0  0  0  0  0  0  0
    3.7566    1.7404    0.0000 H   0  0  0  0  0  0  0  0  0  0  0  0
    0.9404    1.2944    0.0000 C   0  0  0  0  0  0  0  0  0  0  0  0
    0.4461    2.8161    0.0000 H   0  0  0  0  0  0  0  0  0  0  0  0
   -0.0001    0.0000    0.0000 C   0  0  0  0  0  0  0  0  0  0  0  0
   -1.1890   -1.0706    0.0000 H   0  0  0  0  0  0  0  0  0  0  0  0
   -1.3569    0.8478    0.0000 C   0  0  0  0  0  0  0  0  0  0  0  0
   -1.9173    2.3465    0.0000 H   0  0  0  0  0  0  0  0  0  0  0  0
   -0.6934    2.3038    0.0000 H   0  0  0  0  0  0  0  0  0  0  0  0
   -2.7695    0.0967    0.0000 C   0  0  0  0  0  0  0  0  0  0  0  0
   -4.1823   -0.6544    0.0000 H   0  0  0  0  0  0  0  0  0  0  0  0
   -4.1265    0.9446    0.0000 H   0  0  0  0  0  0  0  0  0  0  0  0
   -2.8255   -1.5023    0.0000 H   0  0  0  0  0  0  0  0  0  0  0  0
    0.9404   -1.2944    0.0000 C   0  0  0  0  0  0  0  0  0  0  0  0
   -0.4452   -2.0944    0.0000 H   0  0  0  0  0  0  0  0  0  0  0  0
    1.5913   -2.7561    0.0000 H   0  0  0  0  0  0  0  0  0  0  0  0
    2.4622   -0.8000    0.0000 C   0  0  0  0  0  0  0  0  0  0  0  0
    2.7948   -2.3651    0.0000 H   0  0  0  0  0  0  0  0  0  0  0  0
    4.0534   -0.6327    0.0000 H   0  0  0  0  0  0  0  0  0  0  0  0
  1  2  1  0  0  0  0
  1  3  2  0  0  0  0
  3  4  1  0  0  0  0
  3  5  1  0  0  0  0
  5  6  1  0  0  0  0
  5  7  1  0  0  0  0
  7  8  1  0  0  0  0
  7  9  1  0  0  0  0
  7 10  1  0  0  0  0
 10 11  1  0  0  0  0
 10 12  1  0  0  0  0
 10 13  1  0  0  0  0
  5 14  1  0  0  0  0
 14 15  1  0  0  0  0
 14 16  1  0  0  0  0
 14 17  1  0  0  0  0
 17  1  1  0  0  0  0
 17 18  1  0  0  0  0
 17 19  1  0  0  0  0
M  END
> <ChemID>
103227

> <source_casrn>
694-35-9

> <CAS>
NOCAS_870756

> <SMILES>
CCC1CCC=C1

> <NAME>
CYCLOPENTENE, 3-ETHYL-

> <preferred_name>


> <iupac>


> <MPID>
22201

> <dsstox_substance_id>
DTXSID10870756

> <Canonical_QSARr>
CCC1CCC=C1

> <InChI_Code_QSARr>
InChI=1S/C7H12/c1-2-7-5-3-4-6-7/h3,5,7H,2,4,6H2,1H3

> <InChI Key_QSARr>
HICUGGYRYZOXJI-UHFFFAOYSA-N

> <Salt_Solvent>
?

> <BP>
97.8

$$$$
103232
  -INDIGO-08031720192D

 18 18  0  0  0  0  0  0  0  0999 V2000
    2.4621    0.8000    0.0000 C   0  0  0  0  0  0  0  0  0  0  0  0
    3.7565    1.7405    0.0000 O   0  0  0  0  0  0  0  0  0  0  0  0
    0.9405    1.2944    0.0000 O   0  0  0  0  0  0  0  0  0  0  0  0
    0.0001    0.0000    0.0000 C   0  0  0  0  0  0  0  0  0  0  0  0
   -1.1890   -1.0706    0.0000 H   0  0  0  0  0  0  0  0  0  0  0  0
   -1.1890    1.0706    0.0000 C   0  0  0  0  0  0  0  0  0  0  0  0
   -1.4806    2.6438    0.0000 H   0  0  0  0  0  0  0  0  0  0  0  0
   -0.2828    2.3892    0.0000 H   0  0  0  0  0  0  0  0  0  0  0  0
   -2.7107    0.5762    0.0000 C   0  0  0  0  0  0  0  0  0  0  0  0
   -4.2324    0.0818    0.0000 H   0  0  0  0  0  0  0  0  0  0  0  0
   -3.8998    1.6468    0.0000 H   0  0  0  0  0  0  0  0  0  0  0  0
   -3.0434   -0.9888    0.0000 H   0  0  0  0  0  0  0  0  0  0  0  0
    0.9405   -1.2945    0.0000 C   0  0  0  0  0  0  0  0  0  0  0  0
   -0.4452   -2.0944    0.0000 H   0  0  0  0  0  0  0  0  0  0  0  0
    1.5912   -2.7561    0.0000 H   0  0  0  0  0  0  0  0  0  0  0  0
    2.4621   -0.8000    0.0000 C   0  0  0  0  0  0  0  0  0  0  0  0
    2.7949   -2.3650    0.0000 H   0  0  0  0  0  0  0  0  0  0  0  0
    4.0534   -0.6327    0.0000 H   0  0  0  0  0  0  0  0  0  0  0  0
  1  2  2  0  0  0  0
  1  3  1  0  0  0  0
  3  4  1  0  0  0  0
  4  5  1  0  0  0  0
  4  6  1  0  0  0  0
  6  7  1  0  0  0  0
  6  8  1  0  0  0  0
  6  9  1  0  0  0  0
  9 10  1  0  0  0  0
  9 11  1  0  0  0  0
  9 12  1  0  0  0  0
  4 13  1  0  0  0  0
 13 14  1  0  0  0  0
 13 15  1  0  0  0  0
 13 16  1  0  0  0  0
 16  1  1  0  0  0  0
 16 17  1  0  0  0  0
 16 18  1  0  0  0  0
M  END
> <ChemID>
103232

> <source_casrn>
695-06-7

> <CAS>
695-06-7

> <SMILES>
CCC1CCC(=O)O1

> <NAME>
2(3H)-Furanone, 5-ethyldihydro-

> <preferred_name>
gamma-Caprolactone

> <iupac>
5-ethyldihydrofuran-2(3H)-one

> <MPID>
22205

> <dsstox_substance_id>
DTXSID8041298

> <Canonical_QSARr>
CCC1CCC(=O)O1

> <InChI_Code_QSARr>
InChI=1S/C6H10O2/c1-2-5-3-4-6(7)8-5/h5H,2-4H2,1H3

> <InChI Key_QSARr>
JBFHTYHTHYHCDJ-UHFFFAOYSA-N

> <Salt_Solvent>
?

> <BP>
215.5

$$$$
103236
  -INDIGO-08031720192D

 27 27  0  0  0  0  0  0  0  0999 V2000
    0.0001    0.0000    0.0000 C   0  0  0  0  0  0  0  0  0  0  0  0
    0.5473    1.5035    0.0000 H   0  0  0  0  0  0  0  0  0  0  0  0
    0.0001   -1.6000    0.0000 C   0  0  0  0  0  0  0  0  0  0  0  0
    1.0285   -1.7813    0.0000 H   0  0  0  0  0  0  0  0  0  0  0  0
    0.5473   -3.1035    0.0000 H   0  0  0  0  0  0  0  0  0  0  0  0
   -1.3856   -2.4000    0.0000 C   0  0  0  0  0  0  0  0  0  0  0  0
   -0.3572   -3.6257    0.0000 H   0  0  0  0  0  0  0  0  0  0  0  0
   -2.4141   -3.6257    0.0000 H   0  0  0  0  0  0  0  0  0  0  0  0
   -2.7712   -1.6000    0.0000 C   0  0  0  0  0  0  0  0  0  0  0  0
   -3.3185   -3.1035    0.0000 H   0  0  0  0  0  0  0  0  0  0  0  0
   -4.3470   -1.3222    0.0000 H   0  0  0  0  0  0  0  0  0  0  0  0
   -2.7712    0.0000    0.0000 C   0  0  0  0  0  0  0  0  0  0  0  0
   -4.3470   -0.2778    0.0000 H   0  0  0  0  0  0  0  0  0  0  0  0
   -3.3185    1.5035    0.0000 H   0  0  0  0  0  0  0  0  0  0  0  0
   -1.3856    0.8000    0.0000 C   0  0  0  0  0  0  0  0  0  0  0  0
   -2.4141    2.0257    0.0000 H   0  0  0  0  0  0  0  0  0  0  0  0
   -0.3572    2.0257    0.0000 H   0  0  0  0  0  0  0  0  0  0  0  0
    1.5757   -0.2778    0.0000 C   0  0  0  0  0  0  0  0  0  0  0  0
    1.5757   -1.3222    0.0000 H   0  0  0  0  0  0  0  0  0  0  0  0
    2.9613   -1.0778    0.0000 C   0  0  0  0  0  0  0  0  0  0  0  0
    4.3470   -1.8778    0.0000 H   0  0  0  0  0  0  0  0  0  0  0  0
    4.3470   -0.2778    0.0000 H   0  0  0  0  0  0  0  0  0  0  0  0
    2.9613   -2.6779    0.0000 H   0  0  0  0  0  0  0  0  0  0  0  0
    2.3756    1.1078    0.0000 C   0  0  0  0  0  0  0  0  0  0  0  0
    3.1757    2.4934    0.0000 H   0  0  0  0  0  0  0  0  0  0  0  0
    1.5757    2.4934    0.0000 H   0  0  0  0  0  0  0  0  0  0  0  0
    3.9757    1.1078    0.0000 H   0  0  0  0  0  0  0  0  0  0  0  0
  1  2  1  0  0  0  0
  1  3  1  0  0  0  0
  3  4  1  0  0  0  0
  3  5  1  0  0  0  0
  3  6  1  0  0  0  0
  6  7  1  0  0  0  0
  6  8  1  0  0  0  0
  6  9  1  0  0  0  0
  9 10  1  0  0  0  0
  9 11  1  0  0  0  0
  9 12  1  0  0  0  0
 12 13  1  0  0  0  0
 12 14  1  0  0  0  0
 12 15  1  0  0  0  0
 15  1  1  0  0  0  0
 15 16  1  0  0  0  0
 15 17  1  0  0  0  0
  1 18  1  0  0  0  0
 18 19  1  0  0  0  0
 18 20  1  0  0  0  0
 20 21  1  0  0  0  0
 20 22  1  0  0  0  0
 20 23  1  0  0  0  0
 18 24  1  0  0  0  0
 24 25  1  0  0  0  0
 24 26  1  0  0  0  0
 24 27  1  0  0  0  0
M  END
> <ChemID>
103236

> <source_casrn>
696-29-7

> <CAS>
696-29-7

> <SMILES>
CC(C)C1CCCCC1

> <NAME>
ISOPROPYLCYCLOHEXANE

> <preferred_name>
Cyclohexane, (1-methylethyl)-

> <iupac>
propan-2-ylcyclohexane

> <MPID>
22209

> <dsstox_substance_id>
DTXSID2061012

> <Canonical_QSARr>
CC(C)C1CCCCC1

> <InChI_Code_QSARr>
InChI=1S/C9H18/c1-8(2)9-6-4-3-5-7-9/h8-9H,3-7H2,1-2H3

> <InChI Key_QSARr>
GWESVXSMPKAFAS-UHFFFAOYSA-N

> <Salt_Solvent>
?

> <BP>
154.8

$$$$
103240
  -INDIGO-08031720192D

 16 16  0  0  0  0  0  0  0  0999 V2000
   -1.3856    0.8000    0.0000 O   0  0  0  0  0  0  0  0  0  0  0  0
   -0.0001   -0.0000    0.0000 C   0  0  0  0  0  0  0  0  0  0  0  0
   -0.0001   -1.6000    0.0000 C   0  0  0  0  0  0  0  0  0  0  0  0
   -1.3856   -2.4000    0.0000 H   0  0  0  0  0  0  0  0  0  0  0  0
    1.3856   -2.4000    0.0000 C   0  0  0  0  0  0  0  0  0  0  0  0
    1.3856   -4.0000    0.0000 H   0  0  0  0  0  0  0  0  0  0  0  0
    2.7713   -1.6000    0.0000 C   0  0  0  0  0  0  0  0  0  0  0  0
    4.1569   -2.4000    0.0000 I   0  0  0  0  0  0  0  0  0  0  0  0
    2.7712   -0.0000    0.0000 C   0  0  0  0  0  0  0  0  0  0  0  0
    4.1569    0.8000    0.0000 H   0  0  0  0  0  0  0  0  0  0  0  0
    1.3856    0.8000    0.0000 C   0  0  0  0  0  0  0  0  0  0  0  0
    1.3856    2.4000    0.0000 H   0  0  0  0  0  0  0  0  0  0  0  0
   -2.7713   -0.0000    0.0000 C   0  0  0  0  0  0  0  0  0  0  0  0
   -4.1569    0.8000    0.0000 H   0  0  0  0  0  0  0  0  0  0  0  0
   -4.1569   -0.8000    0.0000 H   0  0  0  0  0  0  0  0  0  0  0  0
   -2.7713    1.6000    0.0000 H   0  0  0  0  0  0  0  0  0  0  0  0
  1  2  1  0  0  0  0
  2  3  1  0  0  0  0
  3  4  1  0  0  0  0
  3  5  2  0  0  0  0
  5  6  1  0  0  0  0
  5  7  1  0  0  0  0
  7  8  1  0  0  0  0
  7  9  2  0  0  0  0
  9 10  1  0  0  0  0
  9 11  1  0  0  0  0
 11  2  2  0  0  0  0
 11 12  1  0  0  0  0
  1 13  1  0  0  0  0
 13 14  1  0  0  0  0
 13 15  1  0  0  0  0
 13 16  1  0  0  0  0
M  END
> <ChemID>
103240

> <source_casrn>
696-62-8

> <CAS>
696-62-8

> <SMILES>
COc1ccc(I)cc1

> <NAME>
Benzene, 1-iodo-4-methoxy-

> <preferred_name>
Benzene, 1-iodo-4-methoxy-

> <iupac>
1-Iodo-4-methoxybenzene

> <MPID>
22213

> <dsstox_substance_id>
DTXSID7061015

> <Canonical_QSARr>
COc1ccc(I)cc1

> <InChI_Code_QSARr>
InChI=1S/C7H7IO/c1-9-7-4-2-6(8)3-5-7/h2-5H,1H3

> <InChI Key_QSARr>
SYSZENVIJHPFNL-UHFFFAOYSA-N

> <Salt_Solvent>
?

> <BP>
238.0

$$$$
103244
  -INDIGO-08031720192D

 22 22  0  0  0  0  0  0  0  0999 V2000
    1.3857    0.8000    0.0000 C   0  0  0  0  0  0  0  0  0  0  0  0
    1.3857    2.4000    0.0000 O   0  0  0  0  0  0  0  0  0  0  0  0
    2.7713    3.2000    0.0000 H   0  0  0  0  0  0  0  0  0  0  0  0
    0.0000   -0.0000    0.0000 C   0  0  0  0  0  0  0  0  0  0  0  0
   -1.3856    0.8000    0.0000 C   0  0  0  0  0  0  0  0  0  0  0  0
   -2.7713    1.6000    0.0000 H   0  0  0  0  0  0  0  0  0  0  0  0
   -1.3857    2.4000    0.0000 H   0  0  0  0  0  0  0  0  0  0  0  0
   -2.7713   -0.0000    0.0000 H   0  0  0  0  0  0  0  0  0  0  0  0
    0.0000   -1.6000    0.0000 C   0  0  0  0  0  0  0  0  0  0  0  0
   -1.3856   -2.4000    0.0000 C   0  0  0  0  0  0  0  0  0  0  0  0
   -2.7713   -3.2000    0.0000 H   0  0  0  0  0  0  0  0  0  0  0  0
   -1.3856   -4.0000    0.0000 H   0  0  0  0  0  0  0  0  0  0  0  0
   -2.7713   -1.6000    0.0000 H   0  0  0  0  0  0  0  0  0  0  0  0
    1.3857   -2.4000    0.0000 C   0  0  0  0  0  0  0  0  0  0  0  0
    1.3857   -4.0000    0.0000 H   0  0  0  0  0  0  0  0  0  0  0  0
    2.7713   -1.6000    0.0000 C   0  0  0  0  0  0  0  0  0  0  0  0
    4.1570   -2.4000    0.0000 C   0  0  0  0  0  0  0  0  0  0  0  0
    5.5426   -3.2000    0.0000 H   0  0  0  0  0  0  0  0  0  0  0  0
    5.5426   -1.6000    0.0000 H   0  0  0  0  0  0  0  0  0  0  0  0
    4.1570   -4.0000    0.0000 H   0  0  0  0  0  0  0  0  0  0  0  0
    2.7713   -0.0000    0.0000 C   0  0  0  0  0  0  0  0  0  0  0  0
    4.1569    0.8000    0.0000 H   0  0  0  0  0  0  0  0  0  0  0  0
  1  2  1  0  0  0  0
  2  3  1  0  0  0  0
  1  4  1  0  0  0  0
  4  5  1  0  0  0  0
  5  6  1  0  0  0  0
  5  7  1  0  0  0  0
  5  8  1  0  0  0  0
  4  9  2  0  0  0  0
  9 10  1  0  0  0  0
 10 11  1  0  0  0  0
 10 12  1  0  0  0  0
 10 13  1  0  0  0  0
  9 14  1  0  0  0  0
 14 15  1  0  0  0  0
 14 16  2  0  0  0  0
 16 17  1  0  0  0  0
 17 18  1  0  0  0  0
 17 19  1  0  0  0  0
 17 20  1  0  0  0  0
 16 21  1  0  0  0  0
 21  1  2  0  0  0  0
 21 22  1  0  0  0  0
M  END
> <ChemID>
103244

> <source_casrn>
697-82-5

> <CAS>
697-82-5

> <SMILES>
Cc1cc(O)c(C)c(C)c1

> <NAME>
2,3,5-TRIMETHYLPHENOL

> <preferred_name>
2,3,5-Trimethylphenol

> <iupac>
2,3,5-trimethylphenol

> <MPID>
22217

> <dsstox_substance_id>
DTXSID3047184

> <Canonical_QSARr>
Cc1cc(O)c(C)c(C)c1

> <InChI_Code_QSARr>
InChI=1S/C9H12O/c1-6-4-7(2)8(3)9(10)5-6/h4-5,10H,1-3H3

> <InChI Key_QSARr>
OGRAOKJKVGDSFR-UHFFFAOYSA-N

> <Salt_Solvent>
?

> <BP>
230.5

$$$$
103248
  -INDIGO-08031720192D

 18 18  0  0  0  0  0  0  0  0999 V2000
    2.7713   -1.6000    0.0000 C   0  0  0  0  0  0  0  0  0  0  0  0
    2.7713   -0.0000    0.0000 C   0  0  0  0  0  0  0  0  0  0  0  0
    4.1570    0.8000    0.0000 O   0  0  0  0  0  0  0  0  0  0  0  0
    4.1570    2.4000    0.0000 H   0  0  0  0  0  0  0  0  0  0  0  0
    1.3857    0.8000    0.0000 C   0  0  0  0  0  0  0  0  0  0  0  0
    1.3857    2.4000    0.0000 H   0  0  0  0  0  0  0  0  0  0  0  0
    0.0000   -0.0000    0.0000 C   0  0  0  0  0  0  0  0  0  0  0  0
   -1.3856    0.8000    0.0000 C   0  0  0  0  0  0  0  0  0  0  0  0
   -2.7713    1.6000    0.0000 H   0  0  0  0  0  0  0  0  0  0  0  0
   -2.7713   -0.0000    0.0000 H   0  0  0  0  0  0  0  0  0  0  0  0
   -1.3856    2.4000    0.0000 H   0  0  0  0  0  0  0  0  0  0  0  0
    0.0000   -1.6000    0.0000 C   0  0  0  0  0  0  0  0  0  0  0  0
   -1.3856   -2.4000    0.0000 H   0  0  0  0  0  0  0  0  0  0  0  0
    1.3857   -2.4000    0.0000 C   0  0  0  0  0  0  0  0  0  0  0  0
    1.3857   -4.0000    0.0000 H   0  0  0  0  0  0  0  0  0  0  0  0
    4.1569   -2.4000    0.0000 C   0  0  0  0  0  0  0  0  0  0  0  0
    4.1569   -4.0000    0.0000 H   0  0  0  0  0  0  0  0  0  0  0  0
    5.5426   -1.6000    0.0000 O   0  0  0  0  0  0  0  0  0  0  0  0
  1  2  1  0  0  0  0
  2  3  1  0  0  0  0
  3  4  1  0  0  0  0
  2  5  2  0  0  0  0
  5  6  1  0  0  0  0
  5  7  1  0  0  0  0
  7  8  1  0  0  0  0
  8  9  1  0  0  0  0
  8 10  1  0  0  0  0
  8 11  1  0  0  0  0
  7 12  2  0  0  0  0
 12 13  1  0  0  0  0
 12 14  1  0  0  0  0
 14  1  2  0  0  0  0
 14 15  1  0  0  0  0
  1 16  1  0  0  0  0
 16 17  1  0  0  0  0
 16 18  2  0  0  0  0
M  END
> <ChemID>
103248

> <source_casrn>
698-27-1

> <CAS>
698-27-1

> <SMILES>
Cc1ccc(C=O)c(O)c1

> <NAME>
2-Hydroxy-4-methylbenzaldehyde

> <preferred_name>
Benzaldehyde, 2-hydroxy-4-methyl-

> <iupac>
2-Hydroxy-4-methylbenzaldehyde

> <MPID>
22221

> <dsstox_substance_id>
DTXSID2074407

> <Canonical_QSARr>
Cc1ccc(C=O)c(O)c1

> <InChI_Code_QSARr>
InChI=1S/C8H8O2/c1-6-2-3-7(5-9)8(10)4-6/h2-5,10H,1H3

> <InChI Key_QSARr>
JODRRPJMQDFCBJ-UHFFFAOYSA-N

> <Salt_Solvent>
?

> <BP>
223.0

$$$$
103252
  -INDIGO-08031720192D

 22 22  0  0  0  0  0  0  0  0999 V2000
    4.8000    0.0000    0.0000 C   0  0  0  0  0  0  0  0  0  0  0  0
    4.0001    1.3857    0.0000 C   0  0  0  0  0  0  0  0  0  0  0  0
    4.8000    2.7713    0.0000 H   0  0  0  0  0  0  0  0  0  0  0  0
    2.4001    1.3857    0.0000 C   0  0  0  0  0  0  0  0  0  0  0  0
    1.5999    2.7713    0.0000 H   0  0  0  0  0  0  0  0  0  0  0  0
    1.5999    0.0000    0.0000 C   0  0  0  0  0  0  0  0  0  0  0  0
   -0.0000    0.0000    0.0000 C   0  0  0  0  0  0  0  0  0  0  0  0
   -0.2089   -1.5864    0.0000 H   0  0  0  0  0  0  0  0  0  0  0  0
   -1.2693   -0.9740    0.0000 H   0  0  0  0  0  0  0  0  0  0  0  0
   -0.8000    1.3857    0.0000 C   0  0  0  0  0  0  0  0  0  0  0  0
   -0.5912    2.9720    0.0000 H   0  0  0  0  0  0  0  0  0  0  0  0
    0.4694    2.3596    0.0000 H   0  0  0  0  0  0  0  0  0  0  0  0
   -2.4000    1.3857    0.0000 O   0  0  0  0  0  0  0  0  0  0  0  0
   -3.2000    2.7713    0.0000 H   0  0  0  0  0  0  0  0  0  0  0  0
    2.4001   -1.3857    0.0000 C   0  0  0  0  0  0  0  0  0  0  0  0
    1.5999   -2.7713    0.0000 H   0  0  0  0  0  0  0  0  0  0  0  0
    4.0001   -1.3857    0.0000 C   0  0  0  0  0  0  0  0  0  0  0  0
    4.8000   -2.7713    0.0000 H   0  0  0  0  0  0  0  0  0  0  0  0
    6.4000    0.0000    0.0000 C   0  0  0  0  0  0  0  0  0  0  0  0
    8.0000    0.0000    0.0000 H   0  0  0  0  0  0  0  0  0  0  0  0
    7.2000   -1.3857    0.0000 H   0  0  0  0  0  0  0  0  0  0  0  0
    7.2000    1.3857    0.0000 H   0  0  0  0  0  0  0  0  0  0  0  0
  1  2  1  0  0  0  0
  2  3  1  0  0  0  0
  2  4  2  0  0  0  0
  4  5  1  0  0  0  0
  4  6  1  0  0  0  0
  6  7  1  0  0  0  0
  7  8  1  0  0  0  0
  7  9  1  0  0  0  0
  7 10  1  0  0  0  0
 10 11  1  0  0  0  0
 10 12  1  0  0  0  0
 10 13  1  0  0  0  0
 13 14  1  0  0  0  0
  6 15  2  0  0  0  0
 15 16  1  0  0  0  0
 15 17  1  0  0  0  0
 17  1  2  0  0  0  0
 17 18  1  0  0  0  0
  1 19  1  0  0  0  0
 19 20  1  0  0  0  0
 19 21  1  0  0  0  0
 19 22  1  0  0  0  0
M  END
> <ChemID>
103252

> <source_casrn>
699-02-5

> <CAS>
699-02-5

> <SMILES>
Cc1ccc(CCO)cc1

> <NAME>
Benzeneethanol, 4-methyl-

> <preferred_name>
Benzeneethanol, 4-methyl-

> <iupac>
2-(4-Methylphenyl)ethanol

> <MPID>
22225

> <dsstox_substance_id>
DTXSID6061020

> <Canonical_QSARr>
Cc1ccc(CCO)cc1

> <InChI_Code_QSARr>
InChI=1S/C9H12O/c1-8-2-4-9(5-3-8)6-7-10/h2-5,10H,6-7H2,1H3

> <InChI Key_QSARr>
DAVFJRVIVZOKKS-UHFFFAOYSA-N

> <Salt_Solvent>
?

> <BP>
244.5

$$$$
103256
  -INDIGO-08031720192D

 27 27  0  0  0  0  0  0  0  0999 V2000
    0.0001    0.0000    0.0000 C   0  0  0  0  0  0  0  0  0  0  0  0
    1.3856   -0.7999    0.0000 C   0  0  0  0  0  0  0  0  0  0  0  0
    2.7713    0.0000    0.0000 C   0  0  0  0  0  0  0  0  0  0  0  0
    4.1569    0.8001    0.0000 H   0  0  0  0  0  0  0  0  0  0  0  0
    4.1569   -0.7999    0.0000 H   0  0  0  0  0  0  0  0  0  0  0  0
    2.7713    1.6000    0.0000 H   0  0  0  0  0  0  0  0  0  0  0  0
    1.3856   -2.3999    0.0000 C   0  0  0  0  0  0  0  0  0  0  0  0
    2.7713   -3.2000    0.0000 C   0  0  0  0  0  0  0  0  0  0  0  0
    4.1569   -3.9999    0.0000 H   0  0  0  0  0  0  0  0  0  0  0  0
    2.7713   -4.8000    0.0000 H   0  0  0  0  0  0  0  0  0  0  0  0
    4.1569   -2.3999    0.0000 H   0  0  0  0  0  0  0  0  0  0  0  0
    0.0001   -3.2000    0.0000 C   0  0  0  0  0  0  0  0  0  0  0  0
   -0.0001   -4.8000    0.0000 H   0  0  0  0  0  0  0  0  0  0  0  0
   -1.3856   -2.3999    0.0000 C   0  0  0  0  0  0  0  0  0  0  0  0
   -2.7712   -3.2000    0.0000 C   0  0  0  0  0  0  0  0  0  0  0  0
   -4.1569   -3.9999    0.0000 H   0  0  0  0  0  0  0  0  0  0  0  0
   -2.7713   -4.8000    0.0000 H   0  0  0  0  0  0  0  0  0  0  0  0
   -4.1569   -2.3999    0.0000 H   0  0  0  0  0  0  0  0  0  0  0  0
   -1.3856   -0.7999    0.0000 C   0  0  0  0  0  0  0  0  0  0  0  0
   -2.7712    0.0000    0.0000 C   0  0  0  0  0  0  0  0  0  0  0  0
   -4.1569    0.8001    0.0000 H   0  0  0  0  0  0  0  0  0  0  0  0
   -4.1569   -0.7999    0.0000 H   0  0  0  0  0  0  0  0  0  0  0  0
   -2.7712    1.6000    0.0000 H   0  0  0  0  0  0  0  0  0  0  0  0
    0.0001    1.6000    0.0000 C   0  0  0  0  0  0  0  0  0  0  0  0
    0.0001    3.2000    0.0000 H   0  0  0  0  0  0  0  0  0  0  0  0
    1.3856    2.4001    0.0000 H   0  0  0  0  0  0  0  0  0  0  0  0
   -1.3856    2.4001    0.0000 H   0  0  0  0  0  0  0  0  0  0  0  0
  1  2  1  0  0  0  0
  2  3  1  0  0  0  0
  3  4  1  0  0  0  0
  3  5  1  0  0  0  0
  3  6  1  0  0  0  0
  2  7  2  0  0  0  0
  7  8  1  0  0  0  0
  8  9  1  0  0  0  0
  8 10  1  0  0  0  0
  8 11  1  0  0  0  0
  7 12  1  0  0  0  0
 12 13  1  0  0  0  0
 12 14  2  0  0  0  0
 14 15  1  0  0  0  0
 15 16  1  0  0  0  0
 15 17  1  0  0  0  0
 15 18  1  0  0  0  0
 14 19  1  0  0  0  0
 19  1  2  0  0  0  0
 19 20  1  0  0  0  0
 20 21  1  0  0  0  0
 20 22  1  0  0  0  0
 20 23  1  0  0  0  0
  1 24  1  0  0  0  0
 24 25  1  0  0  0  0
 24 26  1  0  0  0  0
 24 27  1  0  0  0  0
M  END
> <ChemID>
103256

> <source_casrn>
700-12-9

> <CAS>
700-12-9

> <SMILES>
Cc1c(C)c(C)cc(C)c1C

> <NAME>
PENTAMETHYLBENZENE

> <preferred_name>
Benzene, pentamethyl-

> <iupac>
1,2,3,4,5-Pentamethylbenzene

> <MPID>
22229

> <dsstox_substance_id>
DTXSID6061024

> <Canonical_QSARr>
Cc1c(C)c(C)cc(C)c1C

> <InChI_Code_QSARr>
InChI=1S/C11H16/c1-7-6-8(2)10(4)11(5)9(7)3/h6H,1-5H3

> <InChI Key_QSARr>
BEZDDPMMPIDMGJ-UHFFFAOYSA-N

> <Salt_Solvent>
?

> <BP>
232.0

$$$$
103260
  -INDIGO-08031720192D

 27 27  0  0  0  0  0  0  0  0999 V2000
    3.6770    3.0854    0.0000 O   0  0  0  0  0  0  0  0  0  0  0  0
    3.9549    1.5096    0.0000 C   0  0  0  0  0  0  0  0  0  0  0  0
    5.4584    0.9625    0.0000 O   0  0  0  0  0  0  0  0  0  0  0  0
    6.6840    1.9909    0.0000 H   0  0  0  0  0  0  0  0  0  0  0  0
    2.7292    0.4812    0.0000 C   0  0  0  0  0  0  0  0  0  0  0  0
    3.5889   -0.8682    0.0000 H   0  0  0  0  0  0  0  0  0  0  0  0
    2.3829   -1.0808    0.0000 H   0  0  0  0  0  0  0  0  0  0  0  0
    1.2257    1.0285    0.0000 C   0  0  0  0  0  0  0  0  0  0  0  0
    0.3661    2.3779    0.0000 H   0  0  0  0  0  0  0  0  0  0  0  0
    1.5721    2.5906    0.0000 H   0  0  0  0  0  0  0  0  0  0  0  0
    0.0001   -0.0000    0.0000 C   0  0  0  0  0  0  0  0  0  0  0  0
    1.2257   -1.0284    0.0000 H   0  0  0  0  0  0  0  0  0  0  0  0
   -0.8001    1.3856    0.0000 C   0  0  0  0  0  0  0  0  0  0  0  0
    0.7756    1.6635    0.0000 H   0  0  0  0  0  0  0  0  0  0  0  0
   -1.0778    2.9614    0.0000 H   0  0  0  0  0  0  0  0  0  0  0  0
   -2.4000    1.3856    0.0000 C   0  0  0  0  0  0  0  0  0  0  0  0
   -2.1222    2.9614    0.0000 H   0  0  0  0  0  0  0  0  0  0  0  0
   -3.9035    1.9329    0.0000 H   0  0  0  0  0  0  0  0  0  0  0  0
   -3.2000   -0.0000    0.0000 C   0  0  0  0  0  0  0  0  0  0  0  0
   -4.4257    1.0285    0.0000 H   0  0  0  0  0  0  0  0  0  0  0  0
   -4.4257   -1.0284    0.0000 H   0  0  0  0  0  0  0  0  0  0  0  0
   -2.4000   -1.3856    0.0000 C   0  0  0  0  0  0  0  0  0  0  0  0
   -3.9035   -1.9328    0.0000 H   0  0  0  0  0  0  0  0  0  0  0  0
   -2.1222   -2.9613    0.0000 H   0  0  0  0  0  0  0  0  0  0  0  0
   -0.8001   -1.3856    0.0000 C   0  0  0  0  0  0  0  0  0  0  0  0
   -1.0778   -2.9613    0.0000 H   0  0  0  0  0  0  0  0  0  0  0  0
    0.7036   -1.9328    0.0000 H   0  0  0  0  0  0  0  0  0  0  0  0
  1  2  2  0  0  0  0
  2  3  1  0  0  0  0
  3  4  1  0  0  0  0
  2  5  1  0  0  0  0
  5  6  1  0  0  0  0
  5  7  1  0  0  0  0
  5  8  1  0  0  0  0
  8  9  1  0  0  0  0
  8 10  1  0  0  0  0
  8 11  1  0  0  0  0
 11 12  1  0  0  0  0
 11 13  1  0  0  0  0
 13 14  1  0  0  0  0
 13 15  1  0  0  0  0
 13 16  1  0  0  0  0
 16 17  1  0  0  0  0
 16 18  1  0  0  0  0
 16 19  1  0  0  0  0
 19 20  1  0  0  0  0
 19 21  1  0  0  0  0
 19 22  1  0  0  0  0
 22 23  1  0  0  0  0
 22 24  1  0  0  0  0
 22 25  1  0  0  0  0
 25 11  1  0  0  0  0
 25 26  1  0  0  0  0
 25 27  1  0  0  0  0
M  END
> <ChemID>
103260

> <source_casrn>
701-97-3

> <CAS>
701-97-3

> <SMILES>
OC(=O)CCC1CCCCC1

> <NAME>
Cyclohexanepropanoic acid

> <preferred_name>
Cyclohexanepropionic acid

> <iupac>
3-Cyclohexylpropanoic acid

> <MPID>
22233

> <dsstox_substance_id>
DTXSID6061028

> <Canonical_QSARr>
OC(=O)CCC1CCCCC1

> <InChI_Code_QSARr>
InChI=1S/C9H16O2/c10-9(11)7-6-8-4-2-1-3-5-8/h8H,1-7H2,(H,10,11)

> <InChI Key_QSARr>
HJZLEGIHUQOJBA-UHFFFAOYSA-N

> <Salt_Solvent>
?

> <BP>
276.5

$$$$
103264
  -INDIGO-08031720192D

 18 19  0  0  0  0  0  0  0  0999 V2000
    0.0000   -1.6000    0.0000 S   0  0  0  0  0  0  0  0  0  0  0  0
    0.0000    0.0000    0.0000 C   0  0  0  0  0  0  0  0  0  0  0  0
    1.2944    0.9405    0.0000 C   0  0  0  0  0  0  0  0  0  0  0  0
    1.1271    2.5317    0.0000 O   0  0  0  0  0  0  0  0  0  0  0  0
    2.7561    0.2897    0.0000 C   0  0  0  0  0  0  0  0  0  0  0  0
    3.0888   -1.2754    0.0000 S   0  0  0  0  0  0  0  0  0  0  0  0
    4.6800   -1.4426    0.0000 C   0  0  0  0  0  0  0  0  0  0  0  0
    5.4801   -2.8282    0.0000 H   0  0  0  0  0  0  0  0  0  0  0  0
    5.3307    0.0190    0.0000 C   0  0  0  0  0  0  0  0  0  0  0  0
    6.8958    0.3518    0.0000 H   0  0  0  0  0  0  0  0  0  0  0  0
    4.1417    1.0897    0.0000 C   0  0  0  0  0  0  0  0  0  0  0  0
    4.3089    2.6809    0.0000 H   0  0  0  0  0  0  0  0  0  0  0  0
   -1.5218    0.4945    0.0000 C   0  0  0  0  0  0  0  0  0  0  0  0
   -2.0162    2.0161    0.0000 H   0  0  0  0  0  0  0  0  0  0  0  0
   -2.4621   -0.8000    0.0000 C   0  0  0  0  0  0  0  0  0  0  0  0
   -4.0621   -0.8000    0.0000 H   0  0  0  0  0  0  0  0  0  0  0  0
   -1.5218   -2.0944    0.0000 C   0  0  0  0  0  0  0  0  0  0  0  0
   -2.0162   -3.6161    0.0000 H   0  0  0  0  0  0  0  0  0  0  0  0
  1  2  1  0  0  0  0
  2  3  1  0  0  0  0
  3  4  2  0  0  0  0
  3  5  1  0  0  0  0
  5  6  1  0  0  0  0
  6  7  1  0  0  0  0
  7  8  1  0  0  0  0
  7  9  2  0  0  0  0
  9 10  1  0  0  0  0
  9 11  1  0  0  0  0
 11  5  2  0  0  0  0
 11 12  1  0  0  0  0
  2 13  2  0  0  0  0
 13 14  1  0  0  0  0
 13 15  1  0  0  0  0
 15 16  1  0  0  0  0
 15 17  2  0  0  0  0
 17  1  1  0  0  0  0
 17 18  1  0  0  0  0
M  END
> <ChemID>
103264

> <source_casrn>
704-38-1

> <CAS>
704-38-1

> <SMILES>
O=C(c1ccc[s]1)c1ccc[s]1

> <NAME>
Di-thiophen-2-yl-methanone

> <preferred_name>
Methanone, di-2-thienyl-

> <iupac>
di(thiophen-2-yl)methanone

> <MPID>
22237

> <dsstox_substance_id>
DTXSID50220670

> <Canonical_QSARr>
O=C(c1ccc[s]1)c1ccc[s]1

> <InChI_Code_QSARr>
InChI=1S/C9H6OS2/c10-9(7-3-1-5-11-7)8-4-2-6-12-8/h1-6H

> <InChI Key_QSARr>
GUTQMBQKTSGBPQ-UHFFFAOYSA-N

> <Salt_Solvent>
?

> <BP>
326.0

$$$$
103268
  -INDIGO-08031720192D

 24 25  0  0  0  0  0  0  0  0999 V2000
   -0.5473   -1.5035    0.0000 C   0  0  0  0  0  0  0  0  0  0  0  0
    0.4812   -2.7292    0.0000 H   0  0  0  0  0  0  0  0  0  0  0  0
   -2.1229   -1.7813    0.0000 C   0  0  0  0  0  0  0  0  0  0  0  0
   -2.6702   -3.2849    0.0000 H   0  0  0  0  0  0  0  0  0  0  0  0
   -3.1513   -0.5556    0.0000 C   0  0  0  0  0  0  0  0  0  0  0  0
   -4.7271   -0.8335    0.0000 H   0  0  0  0  0  0  0  0  0  0  0  0
   -2.6042    0.9479    0.0000 C   0  0  0  0  0  0  0  0  0  0  0  0
   -3.6326    2.1735    0.0000 H   0  0  0  0  0  0  0  0  0  0  0  0
   -1.0284    1.2257    0.0000 C   0  0  0  0  0  0  0  0  0  0  0  0
   -0.4813    2.7292    0.0000 H   0  0  0  0  0  0  0  0  0  0  0  0
    0.0000    0.0000    0.0000 C   0  0  0  0  0  0  0  0  0  0  0  0
    1.5756    0.2779    0.0000 As  0  0  0  0  0  0  0  0  0  0  0  0
    1.8536    1.8535    0.0000 Cl  0  0  0  0  0  0  0  0  0  0  0  0
    2.9614   -0.5221    0.0000 C   0  0  0  0  0  0  0  0  0  0  0  0
    2.9614   -2.1222    0.0000 C   0  0  0  0  0  0  0  0  0  0  0  0
    1.5756   -2.9222    0.0000 H   0  0  0  0  0  0  0  0  0  0  0  0
    4.3470   -2.9222    0.0000 C   0  0  0  0  0  0  0  0  0  0  0  0
    4.3470   -4.5222    0.0000 H   0  0  0  0  0  0  0  0  0  0  0  0
    5.7326   -2.1222    0.0000 C   0  0  0  0  0  0  0  0  0  0  0  0
    7.1183   -2.9222    0.0000 H   0  0  0  0  0  0  0  0  0  0  0  0
    5.7326   -0.5221    0.0000 C   0  0  0  0  0  0  0  0  0  0  0  0
    7.1183    0.2779    0.0000 H   0  0  0  0  0  0  0  0  0  0  0  0
    4.3470    0.2779    0.0000 C   0  0  0  0  0  0  0  0  0  0  0  0
    4.3470    1.8779    0.0000 H   0  0  0  0  0  0  0  0  0  0  0  0
  1  2  1  0  0  0  0
  1  3  1  0  0  0  0
  3  4  1  0  0  0  0
  3  5  2  0  0  0  0
  5  6  1  0  0  0  0
  5  7  1  0  0  0  0
  7  8  1  0  0  0  0
  7  9  2  0  0  0  0
  9 10  1  0  0  0  0
  9 11  1  0  0  0  0
 11  1  2  0  0  0  0
 11 12  1  0  0  0  0
 12 13  1  0  0  0  0
 12 14  1  0  0  0  0
 14 15  1  0  0  0  0
 15 16  1  0  0  0  0
 15 17  2  0  0  0  0
 17 18  1  0  0  0  0
 17 19  1  0  0  0  0
 19 20  1  0  0  0  0
 19 21  2  0  0  0  0
 21 22  1  0  0  0  0
 21 23  1  0  0  0  0
 23 14  2  0  0  0  0
 23 24  1  0  0  0  0
M  END
> <ChemID>
103268

> <source_casrn>
712-48-1

> <CAS>
712-48-1

> <SMILES>
Cl[As](c1ccccc1)c1ccccc1

> <NAME>
DIPHENYLCHLOROARSINE

> <preferred_name>
Diphenylchlorarsine

> <iupac>
C12H10AsCl

> <MPID>
22241

> <dsstox_substance_id>
DTXSID30858733

> <Canonical_QSARr>
Cl[As](c1ccccc1)c1ccccc1

> <InChI_Code_QSARr>
InChI=1S/C12H10AsCl/c14-13(11-7-3-1-4-8-11)12-9-5-2-6-10-12/h1-10H

> <InChI Key_QSARr>
YHHKGKCOLGRKKB-UHFFFAOYSA-N

> <Salt_Solvent>
?

> <BP>
337.0

$$$$
103273
  -INDIGO-08031720192D

 34 35  0  0  0  0  0  0  0  0999 V2000
    2.6701    3.2848    0.0000 C   0  0  0  0  0  0  0  0  0  0  0  0
    3.2173    4.7884    0.0000 H   0  0  0  0  0  0  0  0  0  0  0  0
    4.2459    3.5627    0.0000 H   0  0  0  0  0  0  0  0  0  0  0  0
    1.6417    4.5106    0.0000 H   0  0  0  0  0  0  0  0  0  0  0  0
    2.1229    1.7814    0.0000 C   0  0  0  0  0  0  0  0  0  0  0  0
    3.5422    1.0425    0.0000 H   0  0  0  0  0  0  0  0  0  0  0  0
    2.3318    0.1951    0.0000 H   0  0  0  0  0  0  0  0  0  0  0  0
    0.5472    1.5035    0.0000 C   0  0  0  0  0  0  0  0  0  0  0  0
   -0.8719    2.2423    0.0000 H   0  0  0  0  0  0  0  0  0  0  0  0
    0.0661    3.0294    0.0000 H   0  0  0  0  0  0  0  0  0  0  0  0
   -0.0000    0.0001    0.0000 C   0  0  0  0  0  0  0  0  0  0  0  0
   -0.8000   -1.3856    0.0000 H   0  0  0  0  0  0  0  0  0  0  0  0
   -1.5034    0.5472    0.0000 C   0  0  0  0  0  0  0  0  0  0  0  0
   -2.5320   -0.6784    0.0000 C   0  0  0  0  0  0  0  0  0  0  0  0
   -2.2541   -2.2542    0.0000 H   0  0  0  0  0  0  0  0  0  0  0  0
   -4.1076   -0.4007    0.0000 C   0  0  0  0  0  0  0  0  0  0  0  0
   -5.1362   -1.6263    0.0000 H   0  0  0  0  0  0  0  0  0  0  0  0
   -4.6548    1.1029    0.0000 C   0  0  0  0  0  0  0  0  0  0  0  0
   -6.2306    1.3808    0.0000 H   0  0  0  0  0  0  0  0  0  0  0  0
   -3.6264    2.3286    0.0000 C   0  0  0  0  0  0  0  0  0  0  0  0
   -4.1736    3.8321    0.0000 H   0  0  0  0  0  0  0  0  0  0  0  0
   -2.0508    2.0508    0.0000 C   0  0  0  0  0  0  0  0  0  0  0  0
   -1.2508    3.4364    0.0000 H   0  0  0  0  0  0  0  0  0  0  0  0
    0.8000   -1.3856    0.0000 C   0  0  0  0  0  0  0  0  0  0  0  0
   -0.0000   -2.7713    0.0000 C   0  0  0  0  0  0  0  0  0  0  0  0
   -1.5756   -3.0492    0.0000 H   0  0  0  0  0  0  0  0  0  0  0  0
    0.8000   -4.1569    0.0000 C   0  0  0  0  0  0  0  0  0  0  0  0
   -0.0000   -5.5426    0.0000 H   0  0  0  0  0  0  0  0  0  0  0  0
    2.4000   -4.1569    0.0000 C   0  0  0  0  0  0  0  0  0  0  0  0
    3.2000   -5.5426    0.0000 H   0  0  0  0  0  0  0  0  0  0  0  0
    3.2000   -2.7713    0.0000 C   0  0  0  0  0  0  0  0  0  0  0  0
    4.8000   -2.7713    0.0000 H   0  0  0  0  0  0  0  0  0  0  0  0
    2.4000   -1.3856    0.0000 C   0  0  0  0  0  0  0  0  0  0  0  0
    3.4284   -0.1600    0.0000 H   0  0  0  0  0  0  0  0  0  0  0  0
  1  2  1  0  0  0  0
  1  3  1  0  0  0  0
  1  4  1  0  0  0  0
  1  5  1  0  0  0  0
  5  6  1  0  0  0  0
  5  7  1  0  0  0  0
  5  8  1  0  0  0  0
  8  9  1  0  0  0  0
  8 10  1  0  0  0  0
  8 11  1  0  0  0  0
 11 12  1  0  0  0  0
 11 13  1  0  0  0  0
 13 14  1  0  0  0  0
 14 15  1  0  0  0  0
 14 16  2  0  0  0  0
 16 17  1  0  0  0  0
 16 18  1  0  0  0  0
 18 19  1  0  0  0  0
 18 20  2  0  0  0  0
 20 21  1  0  0  0  0
 20 22  1  0  0  0  0
 22 13  2  0  0  0  0
 22 23  1  0  0  0  0
 11 24  1  0  0  0  0
 24 25  1  0  0  0  0
 25 26  1  0  0  0  0
 25 27  2  0  0  0  0
 27 28  1  0  0  0  0
 27 29  1  0  0  0  0
 29 30  1  0  0  0  0
 29 31  2  0  0  0  0
 31 32  1  0  0  0  0
 31 33  1  0  0  0  0
 33 24  2  0  0  0  0
 33 34  1  0  0  0  0
M  END
> <ChemID>
103273

> <source_casrn>
719-79-9

> <CAS>
719-79-9

> <SMILES>
CCCC(c1ccccc1)c1ccccc1

> <NAME>
Benzene, 1,1'-butylidenebis-

> <preferred_name>
1,1-Diphenylbutane

> <iupac>
1-phenylbutylbenzene

> <MPID>
22245

> <dsstox_substance_id>
DTXSID3061053

> <Canonical_QSARr>
CCCC(c1ccccc1)c1ccccc1

> <InChI_Code_QSARr>
InChI=1S/C16H18/c1-2-9-16(14-10-5-3-6-11-14)15-12-7-4-8-13-15/h3-8,10-13,16H,2,9H2,1H3

> <InChI Key_QSARr>
SZFDQMKAGLCYPA-UHFFFAOYSA-N

> <Salt_Solvent>
?

> <BP>
287.0

$$$$
103278
  -INDIGO-08031720192D

 18 17  0  0  0  0  0  0  0  0999 V2000
   -1.3856   -0.8000    0.0000 C   0  0  0  0  0  0  0  0  0  0  0  0
   -1.3856   -2.4000    0.0000 H   0  0  0  0  0  0  0  0  0  0  0  0
    0.0000    0.0000    0.0000 Si  0  0  0  0  0  0  0  0  0  0  0  0
   -0.8000    1.3856    0.0000 C   0  0  0  0  0  0  0  0  0  0  0  0
   -1.6000    2.7713    0.0000 H   0  0  0  0  0  0  0  0  0  0  0  0
    0.0000    2.7713    0.0000 H   0  0  0  0  0  0  0  0  0  0  0  0
   -2.4000    1.3856    0.0000 H   0  0  0  0  0  0  0  0  0  0  0  0
    1.3856    0.8000    0.0000 C   0  0  0  0  0  0  0  0  0  0  0  0
    2.7713    1.6000    0.0000 H   0  0  0  0  0  0  0  0  0  0  0  0
    2.7713    0.0000    0.0000 H   0  0  0  0  0  0  0  0  0  0  0  0
    1.3856    2.4000    0.0000 H   0  0  0  0  0  0  0  0  0  0  0  0
    0.8000   -1.3856    0.0000 C   0  0  0  0  0  0  0  0  0  0  0  0
    1.6000   -2.7713    0.0000 H   0  0  0  0  0  0  0  0  0  0  0  0
    0.0000   -2.7713    0.0000 H   0  0  0  0  0  0  0  0  0  0  0  0
    2.4000   -1.3856    0.0000 H   0  0  0  0  0  0  0  0  0  0  0  0
   -2.9613   -0.5222    0.0000 C   0  0  0  0  0  0  0  0  0  0  0  0
   -3.9898   -1.7479    0.0000 H   0  0  0  0  0  0  0  0  0  0  0  0
   -3.5085    0.9814    0.0000 H   0  0  0  0  0  0  0  0  0  0  0  0
  1  2  1  0  0  0  0
  1  3  1  0  0  0  0
  3  4  1  0  0  0  0
  4  5  1  0  0  0  0
  4  6  1  0  0  0  0
  4  7  1  0  0  0  0
  3  8  1  0  0  0  0
  8  9  1  0  0  0  0
  8 10  1  0  0  0  0
  8 11  1  0  0  0  0
  3 12  1  0  0  0  0
 12 13  1  0  0  0  0
 12 14  1  0  0  0  0
 12 15  1  0  0  0  0
  1 16  2  0  0  0  0
 16 17  1  0  0  0  0
 16 18  1  0  0  0  0
M  END
> <ChemID>
103278

> <source_casrn>
754-05-2

> <CAS>
754-05-2

> <SMILES>
C[Si](C)(C)C=C

> <NAME>
SILANE, ETHENYLTRIMETHYL-

> <preferred_name>
Silane, ethenyltrimethyl-

> <iupac>
ethenyl-trimethylsilane

> <MPID>
22249

> <dsstox_substance_id>
DTXSID1061071

> <Canonical_QSARr>
C[Si](C)(C)C=C

> <InChI_Code_QSARr>
InChI=1S/C5H12Si/c1-5-6(2,3)4/h5H,1H2,2-4H3

> <InChI Key_QSARr>
GCSJLQSCSDMKTP-UHFFFAOYSA-N

> <Salt_Solvent>
?

> <BP>
55.0

$$$$
103282
  -INDIGO-08031720192D

 16 15  0  0  0  0  0  0  0  0999 V2000
    0.8000   -1.3856    0.0000 C   0  0  0  0  0  0  0  0  0  0  0  0
    1.6001   -2.7713    0.0000 H   0  0  0  0  0  0  0  0  0  0  0  0
    0.0001   -2.7713    0.0000 H   0  0  0  0  0  0  0  0  0  0  0  0
    2.4000   -1.3856    0.0000 H   0  0  0  0  0  0  0  0  0  0  0  0
    0.0001    0.0000    0.0000 P   0  0  0  0  0  0  0  0  0  0  0  0
   -1.5999    0.0000    0.0000 O   0  0  0  0  0  0  0  0  0  0  0  0
   -0.8000    1.3856    0.0000 O   0  0  0  0  0  0  0  0  0  0  0  0
   -2.4000    1.3856    0.0000 C   0  0  0  0  0  0  0  0  0  0  0  0
   -4.0000    1.3856    0.0000 H   0  0  0  0  0  0  0  0  0  0  0  0
   -3.2001    2.7713    0.0000 H   0  0  0  0  0  0  0  0  0  0  0  0
   -3.2001    0.0000    0.0000 H   0  0  0  0  0  0  0  0  0  0  0  0
    0.8000    1.3856    0.0000 O   0  0  0  0  0  0  0  0  0  0  0  0
    2.4000    1.3856    0.0000 C   0  0  0  0  0  0  0  0  0  0  0  0
    3.2001    2.7713    0.0000 H   0  0  0  0  0  0  0  0  0  0  0  0
    4.0000    1.3856    0.0000 H   0  0  0  0  0  0  0  0  0  0  0  0
    1.6001    2.7713    0.0000 H   0  0  0  0  0  0  0  0  0  0  0  0
  1  2  1  0  0  0  0
  1  3  1  0  0  0  0
  1  4  1  0  0  0  0
  1  5  1  0  0  0  0
  5  6  2  0  0  0  0
  5  7  1  0  0  0  0
  7  8  1  0  0  0  0
  8  9  1  0  0  0  0
  8 10  1  0  0  0  0
  8 11  1  0  0  0  0
  5 12  1  0  0  0  0
 12 13  1  0  0  0  0
 13 14  1  0  0  0  0
 13 15  1  0  0  0  0
 13 16  1  0  0  0  0
M  END
> <ChemID>
103282

> <source_casrn>
756-79-6

> <CAS>
756-79-6

> <SMILES>
CP(=O)(OC)OC

> <NAME>
Phosphonic acid, methyl-, dimethyl ester

> <preferred_name>
Dimethyl methylphosphonate

> <iupac>
dimethyl methylphosphonate

> <MPID>
22253

> <dsstox_substance_id>
DTXSID0020494

> <Canonical_QSARr>
CP(=O)(OC)OC

> <InChI_Code_QSARr>
InChI=1S/C3H9O3P/c1-5-7(3,4)6-2/h1-3H3

> <InChI Key_QSARr>
VONWDASPFIQPDY-UHFFFAOYSA-N

> <Salt_Solvent>
?

> <BP>
181.0

$$$$
103286
  -INDIGO-08031720192D

 18 17  0  0  0  0  0  0  0  0999 V2000
    2.8892    0.2528    0.0000 C   0  0  0  0  0  0  0  0  0  0  0  0
    4.1148    1.2812    0.0000 H   0  0  0  0  0  0  0  0  0  0  0  0
    3.1669   -1.3230    0.0000 H   0  0  0  0  0  0  0  0  0  0  0  0
    1.3856    0.8000    0.0000 C   0  0  0  0  0  0  0  0  0  0  0  0
    1.3856    2.4000    0.0000 H   0  0  0  0  0  0  0  0  0  0  0  0
   -0.0000    0.0000    0.0000 C   0  0  0  0  0  0  0  0  0  0  0  0
   -1.3856   -0.8000    0.0000 H   0  0  0  0  0  0  0  0  0  0  0  0
    0.8000   -1.3856    0.0000 C   0  0  0  0  0  0  0  0  0  0  0  0
    2.2782   -0.7733    0.0000 H   0  0  0  0  0  0  0  0  0  0  0  0
    2.2782   -1.9980    0.0000 H   0  0  0  0  0  0  0  0  0  0  0  0
   -0.0000   -2.7713    0.0000 C   0  0  0  0  0  0  0  0  0  0  0  0
   -0.8000   -4.1569    0.0000 H   0  0  0  0  0  0  0  0  0  0  0  0
    0.8000   -4.1569    0.0000 H   0  0  0  0  0  0  0  0  0  0  0  0
   -1.6000   -2.7713    0.0000 H   0  0  0  0  0  0  0  0  0  0  0  0
   -0.8000    1.3856    0.0000 C   0  0  0  0  0  0  0  0  0  0  0  0
   -1.6000    2.7713    0.0000 H   0  0  0  0  0  0  0  0  0  0  0  0
   -2.4000    1.3856    0.0000 H   0  0  0  0  0  0  0  0  0  0  0  0
   -0.0000    2.7713    0.0000 H   0  0  0  0  0  0  0  0  0  0  0  0
  1  2  1  0  0  0  0
  1  3  1  0  0  0  0
  1  4  2  0  0  0  0
  4  5  1  0  0  0  0
  4  6  1  0  0  0  0
  6  7  1  0  0  0  0
  6  8  1  0  0  0  0
  8  9  1  0  0  0  0
  8 10  1  0  0  0  0
  8 11  1  0  0  0  0
 11 12  1  0  0  0  0
 11 13  1  0  0  0  0
 11 14  1  0  0  0  0
  6 15  1  0  0  0  0
 15 16  1  0  0  0  0
 15 17  1  0  0  0  0
 15 18  1  0  0  0  0
M  END
> <ChemID>
103286

> <source_casrn>
760-20-3

> <CAS>
NOCAS_870762

> <SMILES>
CCC(C)C=C

> <NAME>
3-METHYL-1-PENTENE

> <preferred_name>


> <iupac>


> <MPID>
22257

> <dsstox_substance_id>
DTXSID20870762

> <Canonical_QSARr>
CCC(C)C=C

> <InChI_Code_QSARr>
InChI=1S/C6H12/c1-4-6(3)5-2/h4,6H,1,5H2,2-3H3

> <InChI Key_QSARr>
LDTAOIUHUHHCMU-UHFFFAOYSA-N

> <Salt_Solvent>
?

> <BP>
54.2

$$$$
103290
  -INDIGO-08031720192D

 19 18  0  0  0  0  0  0  0  0999 V2000
    2.7714    0.0000    0.0000 P   0  0  0  0  0  0  0  0  0  0  0  0
    4.1569    0.8000    0.0000 O   0  0  0  0  0  0  0  0  0  0  0  0
    5.5425   -0.0000    0.0000 C   0  0  0  0  0  0  0  0  0  0  0  0
    4.9302   -1.4782    0.0000 H   0  0  0  0  0  0  0  0  0  0  0  0
    6.1548   -1.4782    0.0000 H   0  0  0  0  0  0  0  0  0  0  0  0
    6.9282    0.8000    0.0000 C   0  0  0  0  0  0  0  0  0  0  0  0
    8.3138    1.6000    0.0000 H   0  0  0  0  0  0  0  0  0  0  0  0
    8.3138   -0.0000    0.0000 H   0  0  0  0  0  0  0  0  0  0  0  0
    6.9282    2.4000    0.0000 H   0  0  0  0  0  0  0  0  0  0  0  0
    1.3857    0.8000    0.0000 O   0  0  0  0  0  0  0  0  0  0  0  0
    0.0000    0.0000    0.0000 C   0  0  0  0  0  0  0  0  0  0  0  0
   -0.6123   -1.4782    0.0000 H   0  0  0  0  0  0  0  0  0  0  0  0
    0.6124   -1.4782    0.0000 H   0  0  0  0  0  0  0  0  0  0  0  0
   -1.3856    0.8000    0.0000 C   0  0  0  0  0  0  0  0  0  0  0  0
   -2.7713    1.6000    0.0000 H   0  0  0  0  0  0  0  0  0  0  0  0
   -2.7713    0.0000    0.0000 H   0  0  0  0  0  0  0  0  0  0  0  0
   -1.3856    2.4000    0.0000 H   0  0  0  0  0  0  0  0  0  0  0  0
    2.7714   -1.6000    0.0000 O   0  0  0  0  0  0  0  0  0  0  0  0
    4.1569   -2.4000    0.0000 H   0  0  0  0  0  0  0  0  0  0  0  0
  1  2  1  0  0  0  0
  2  3  1  0  0  0  0
  3  4  1  0  0  0  0
  3  5  1  0  0  0  0
  3  6  1  0  0  0  0
  6  7  1  0  0  0  0
  6  8  1  0  0  0  0
  6  9  1  0  0  0  0
  1 10  1  0  0  0  0
 10 11  1  0  0  0  0
 11 12  1  0  0  0  0
 11 13  1  0  0  0  0
 11 14  1  0  0  0  0
 14 15  1  0  0  0  0
 14 16  1  0  0  0  0
 14 17  1  0  0  0  0
  1 18  1  0  0  0  0
 18 19  1  0  0  0  0
M  END
> <ChemID>
103290

> <source_casrn>
762-04-9

> <CAS>
762-04-9

> <SMILES>
CCOP(O)OCC

> <NAME>
DIETHYL PHOSPHITE

> <preferred_name>
Diethyl phosphite

> <iupac>
diethyl hydrogen phosphite

> <MPID>
22261

> <dsstox_substance_id>
DTXSID9041861

> <Canonical_QSARr>
CCOP(O)OCC

> <InChI_Code_QSARr>
InChI=1S/C4H11O3P/c1-3-6-8(5)7-4-2/h5H,3-4H2,1-2H3

> <InChI Key_QSARr>
SULWMEGSVQCTSK-UHFFFAOYSA-N

> <Salt_Solvent>
?

> <BP>
138.0

$$$$
103294
  -INDIGO-08031720192D

 21 20  0  0  0  0  0  0  0  0999 V2000
    3.9899   -1.7479    0.0000 C   0  0  0  0  0  0  0  0  0  0  0  0
    5.0182   -2.9735    0.0000 H   0  0  0  0  0  0  0  0  0  0  0  0
    5.5655   -1.4700    0.0000 H   0  0  0  0  0  0  0  0  0  0  0  0
    3.4426   -3.2513    0.0000 H   0  0  0  0  0  0  0  0  0  0  0  0
    2.9614   -0.5222    0.0000 C   0  0  0  0  0  0  0  0  0  0  0  0
    3.5086    0.9814    0.0000 H   0  0  0  0  0  0  0  0  0  0  0  0
    1.3856   -0.8000    0.0000 C   0  0  0  0  0  0  0  0  0  0  0  0
    1.3856   -2.4000    0.0000 H   0  0  0  0  0  0  0  0  0  0  0  0
    0.0000   -0.0000    0.0000 C   0  0  0  0  0  0  0  0  0  0  0  0
   -1.3857    0.8000    0.0000 C   0  0  0  0  0  0  0  0  0  0  0  0
   -2.7713    1.6000    0.0000 H   0  0  0  0  0  0  0  0  0  0  0  0
   -2.7713   -0.0000    0.0000 H   0  0  0  0  0  0  0  0  0  0  0  0
   -1.3857    2.4000    0.0000 H   0  0  0  0  0  0  0  0  0  0  0  0
    0.8000    1.3856    0.0000 C   0  0  0  0  0  0  0  0  0  0  0  0
    1.5999    2.7713    0.0000 H   0  0  0  0  0  0  0  0  0  0  0  0
    2.4000    1.3856    0.0000 H   0  0  0  0  0  0  0  0  0  0  0  0
    0.0000    2.7713    0.0000 H   0  0  0  0  0  0  0  0  0  0  0  0
   -0.8000   -1.3856    0.0000 C   0  0  0  0  0  0  0  0  0  0  0  0
   -1.6001   -2.7713    0.0000 H   0  0  0  0  0  0  0  0  0  0  0  0
    0.0000   -2.7713    0.0000 H   0  0  0  0  0  0  0  0  0  0  0  0
   -2.4000   -1.3856    0.0000 H   0  0  0  0  0  0  0  0  0  0  0  0
  1  2  1  0  0  0  0
  1  3  1  0  0  0  0
  1  4  1  0  0  0  0
  1  5  1  0  0  0  0
  5  6  1  0  0  0  0
  5  7  2  0  0  0  0
  7  8  1  0  0  0  0
  7  9  1  0  0  0  0
  9 10  1  0  0  0  0
 10 11  1  0  0  0  0
 10 12  1  0  0  0  0
 10 13  1  0  0  0  0
  9 14  1  0  0  0  0
 14 15  1  0  0  0  0
 14 16  1  0  0  0  0
 14 17  1  0  0  0  0
  9 18  1  0  0  0  0
 18 19  1  0  0  0  0
 18 20  1  0  0  0  0
 18 21  1  0  0  0  0
M  END
> <ChemID>
103294

> <source_casrn>
762-63-0

> <CAS>
26232-98-4

> <SMILES>
CC=CC(C)(C)C

> <NAME>
2-PENTENE, 4,4-DIMETHYL-, (Z)-

> <preferred_name>
2-Pentene, 4,4-dimethyl-

> <iupac>
?

> <MPID>
22265

> <dsstox_substance_id>
DTXSID5075078

> <Canonical_QSARr>
CC=CC(C)(C)C

> <InChI_Code_QSARr>
InChI=1S/C7H14/c1-5-6-7(2,3)4/h5-6H,1-4H3/b6-5+

> <InChI Key_QSARr>
BIDIHFPLDRSAMB-AATRIKPKSA-N

> <Salt_Solvent>
?

> <BP>
80.4

$$$$
103298
  -INDIGO-08031720192D

 16 15  0  0  0  0  0  0  0  0999 V2000
    0.0001    0.0000    0.0000 C   0  0  0  0  0  0  0  0  0  0  0  0
    0.6123   -1.4782    0.0000 H   0  0  0  0  0  0  0  0  0  0  0  0
   -0.6123   -1.4782    0.0000 H   0  0  0  0  0  0  0  0  0  0  0  0
    1.3856    0.8000    0.0000 C   0  0  0  0  0  0  0  0  0  0  0  0
    2.7713    0.0000    0.0000 C   0  0  0  0  0  0  0  0  0  0  0  0
    4.1569   -0.8000    0.0000 H   0  0  0  0  0  0  0  0  0  0  0  0
    4.1569    0.8000    0.0000 H   0  0  0  0  0  0  0  0  0  0  0  0
    2.7713   -1.6000    0.0000 H   0  0  0  0  0  0  0  0  0  0  0  0
    1.3856    2.4000    0.0000 C   0  0  0  0  0  0  0  0  0  0  0  0
    2.7713    3.2000    0.0000 H   0  0  0  0  0  0  0  0  0  0  0  0
    0.0001    3.2000    0.0000 H   0  0  0  0  0  0  0  0  0  0  0  0
   -1.3856    0.8000    0.0000 C   0  0  0  0  0  0  0  0  0  0  0  0
   -1.3856    2.4000    0.0000 H   0  0  0  0  0  0  0  0  0  0  0  0
   -2.7713    0.0000    0.0000 C   0  0  0  0  0  0  0  0  0  0  0  0
   -4.1569    0.8000    0.0000 H   0  0  0  0  0  0  0  0  0  0  0  0
   -2.7712   -1.6000    0.0000 H   0  0  0  0  0  0  0  0  0  0  0  0
  1  2  1  0  0  0  0
  1  3  1  0  0  0  0
  1  4  1  0  0  0  0
  4  5  1  0  0  0  0
  5  6  1  0  0  0  0
  5  7  1  0  0  0  0
  5  8  1  0  0  0  0
  4  9  2  0  0  0  0
  9 10  1  0  0  0  0
  9 11  1  0  0  0  0
  1 12  1  0  0  0  0
 12 13  1  0  0  0  0
 12 14  2  0  0  0  0
 14 15  1  0  0  0  0
 14 16  1  0  0  0  0
M  END
> <ChemID>
103298

> <source_casrn>
763-30-4

> <CAS>
763-30-4

> <SMILES>
CC(=C)CC=C

> <NAME>
2-METHYL-1,4-PENTADIENE

> <preferred_name>
1,4-Pentadiene, 2-methyl-

> <iupac>
2-Methylpenta-1,4-diene

> <MPID>
22269

> <dsstox_substance_id>
DTXSID80227172

> <Canonical_QSARr>
CC(=C)CC=C

> <InChI_Code_QSARr>
InChI=1S/C6H10/c1-4-5-6(2)3/h4H,1-2,5H2,3H3

> <InChI Key_QSARr>
DRWYRROCDFQZQF-UHFFFAOYSA-N

> <Salt_Solvent>
?

> <BP>
56.0

$$$$
103302
  -INDIGO-08031720192D

 22 21  0  0  0  0  0  0  0  0999 V2000
    0.8001   -1.3856    0.0000 C   0  0  0  0  0  0  0  0  0  0  0  0
    1.6000   -2.7713    0.0000 H   0  0  0  0  0  0  0  0  0  0  0  0
    0.0000   -2.7713    0.0000 H   0  0  0  0  0  0  0  0  0  0  0  0
    2.4000   -1.3856    0.0000 H   0  0  0  0  0  0  0  0  0  0  0  0
    0.0000    0.0000    0.0000 C   0  0  0  0  0  0  0  0  0  0  0  0
    0.8001    1.3856    0.0000 C   0  0  0  0  0  0  0  0  0  0  0  0
    1.6000    2.7713    0.0000 H   0  0  0  0  0  0  0  0  0  0  0  0
    2.4000    1.3856    0.0000 H   0  0  0  0  0  0  0  0  0  0  0  0
    0.0000    2.7713    0.0000 H   0  0  0  0  0  0  0  0  0  0  0  0
   -1.6000    0.0000    0.0000 C   0  0  0  0  0  0  0  0  0  0  0  0
   -2.4000   -1.3856    0.0000 H   0  0  0  0  0  0  0  0  0  0  0  0
   -2.4000    1.3856    0.0000 C   0  0  0  0  0  0  0  0  0  0  0  0
   -1.6000    2.7713    0.0000 H   0  0  0  0  0  0  0  0  0  0  0  0
   -4.0000    1.3856    0.0000 C   0  0  0  0  0  0  0  0  0  0  0  0
   -4.8001    2.7713    0.0000 C   0  0  0  0  0  0  0  0  0  0  0  0
   -5.6000    4.1569    0.0000 H   0  0  0  0  0  0  0  0  0  0  0  0
   -6.4000    2.7713    0.0000 H   0  0  0  0  0  0  0  0  0  0  0  0
   -4.0000    4.1569    0.0000 H   0  0  0  0  0  0  0  0  0  0  0  0
   -4.8001    0.0000    0.0000 C   0  0  0  0  0  0  0  0  0  0  0  0
   -5.6000   -1.3856    0.0000 H   0  0  0  0  0  0  0  0  0  0  0  0
   -6.4000    0.0000    0.0000 H   0  0  0  0  0  0  0  0  0  0  0  0
   -4.0000   -1.3856    0.0000 H   0  0  0  0  0  0  0  0  0  0  0  0
  1  2  1  0  0  0  0
  1  3  1  0  0  0  0
  1  4  1  0  0  0  0
  1  5  1  0  0  0  0
  5  6  1  0  0  0  0
  6  7  1  0  0  0  0
  6  8  1  0  0  0  0
  6  9  1  0  0  0  0
  5 10  2  0  0  0  0
 10 11  1  0  0  0  0
 10 12  1  0  0  0  0
 12 13  1  0  0  0  0
 12 14  2  0  0  0  0
 14 15  1  0  0  0  0
 15 16  1  0  0  0  0
 15 17  1  0  0  0  0
 15 18  1  0  0  0  0
 14 19  1  0  0  0  0
 19 20  1  0  0  0  0
 19 21  1  0  0  0  0
 19 22  1  0  0  0  0
M  END
> <ChemID>
103302

> <source_casrn>
764-13-6

> <CAS>
764-13-6

> <SMILES>
CC(C)=CC=C(C)C

> <NAME>
2,5-DIMETHYL-2,4-HEXADIENE

> <preferred_name>
2,5-Dimethyl-2,4-hexadiene

> <iupac>
2,5-dimethylhexa-2,4-diene

> <MPID>
22273

> <dsstox_substance_id>
DTXSID3022116

> <Canonical_QSARr>
CC(C)=CC=C(C)C

> <InChI_Code_QSARr>
InChI=1S/C8H14/c1-7(2)5-6-8(3)4/h5-6H,1-4H3

> <InChI Key_QSARr>
DZPCYXCBXGQBRN-UHFFFAOYSA-N

> <Salt_Solvent>
?

> <BP>
134.5

$$$$
103307
  -INDIGO-08031720192D

 14 13  0  0  0  0  0  0  0  0999 V2000
    0.0001    0.0000    0.0000 C   0  0  0  0  0  0  0  0  0  0  0  0
    0.6124   -1.4782    0.0000 H   0  0  0  0  0  0  0  0  0  0  0  0
   -0.6122   -1.4782    0.0000 H   0  0  0  0  0  0  0  0  0  0  0  0
   -1.3857    0.8000    0.0000 O   0  0  0  0  0  0  0  0  0  0  0  0
   -2.7713    0.0000    0.0000 C   0  0  0  0  0  0  0  0  0  0  0  0
   -2.7713   -1.6000    0.0000 H   0  0  0  0  0  0  0  0  0  0  0  0
   -4.1569    0.8000    0.0000 C   0  0  0  0  0  0  0  0  0  0  0  0
   -5.5426    0.0000    0.0000 H   0  0  0  0  0  0  0  0  0  0  0  0
   -4.1569    2.4000    0.0000 H   0  0  0  0  0  0  0  0  0  0  0  0
    1.3857    0.8000    0.0000 C   0  0  0  0  0  0  0  0  0  0  0  0
    0.7734    2.2782    0.0000 H   0  0  0  0  0  0  0  0  0  0  0  0
    1.9980    2.2782    0.0000 H   0  0  0  0  0  0  0  0  0  0  0  0
    2.7713    0.0000    0.0000 O   0  0  0  0  0  0  0  0  0  0  0  0
    4.1569    0.8000    0.0000 H   0  0  0  0  0  0  0  0  0  0  0  0
  1  2  1  0  0  0  0
  1  3  1  0  0  0  0
  1  4  1  0  0  0  0
  4  5  1  0  0  0  0
  5  6  1  0  0  0  0
  5  7  2  0  0  0  0
  7  8  1  0  0  0  0
  7  9  1  0  0  0  0
  1 10  1  0  0  0  0
 10 11  1  0  0  0  0
 10 12  1  0  0  0  0
 10 13  1  0  0  0  0
 13 14  1  0  0  0  0
M  END
> <ChemID>
103307

> <source_casrn>
764-48-7

> <CAS>
764-48-7

> <SMILES>
C=COCCO

> <NAME>
ETHANOL, 2-(ETHENYLOXY)-

> <preferred_name>
Ethylene glycol monovinyl ether

> <iupac>
2-ethenoxyethanol

> <MPID>
22278

> <dsstox_substance_id>
DTXSID4075457

> <Canonical_QSARr>
C=COCCO

> <InChI_Code_QSARr>
InChI=1S/C4H8O2/c1-2-6-4-3-5/h2,5H,1,3-4H2

> <InChI Key_QSARr>
VUIWJRYTWUGOOF-UHFFFAOYSA-N

> <Salt_Solvent>
?

> <BP>
141.6

$$$$
103311
  -INDIGO-08031720192D

 33 32  0  0  0  0  0  0  0  0999 V2000
    8.3138    0.0000    0.0000 C   0  0  0  0  0  0  0  0  0  0  0  0
    8.9260   -1.4782    0.0000 H   0  0  0  0  0  0  0  0  0  0  0  0
    7.7015   -1.4782    0.0000 H   0  0  0  0  0  0  0  0  0  0  0  0
    6.9282    0.8000    0.0000 C   0  0  0  0  0  0  0  0  0  0  0  0
    6.3160    2.2782    0.0000 H   0  0  0  0  0  0  0  0  0  0  0  0
    7.5404    2.2782    0.0000 H   0  0  0  0  0  0  0  0  0  0  0  0
    5.5426    0.0000    0.0000 C   0  0  0  0  0  0  0  0  0  0  0  0
    5.5426   -1.6000    0.0000 H   0  0  0  0  0  0  0  0  0  0  0  0
    4.1568    0.8000    0.0000 C   0  0  0  0  0  0  0  0  0  0  0  0
    4.1568    2.4000    0.0000 H   0  0  0  0  0  0  0  0  0  0  0  0
    2.7712    0.0000    0.0000 C   0  0  0  0  0  0  0  0  0  0  0  0
    3.3835   -1.4782    0.0000 H   0  0  0  0  0  0  0  0  0  0  0  0
    2.1590   -1.4782    0.0000 H   0  0  0  0  0  0  0  0  0  0  0  0
    1.3856    0.8000    0.0000 C   0  0  0  0  0  0  0  0  0  0  0  0
    0.7734    2.2782    0.0000 H   0  0  0  0  0  0  0  0  0  0  0  0
    1.9979    2.2782    0.0000 H   0  0  0  0  0  0  0  0  0  0  0  0
    0.0001    0.0000    0.0000 C   0  0  0  0  0  0  0  0  0  0  0  0
    0.6123   -1.4782    0.0000 H   0  0  0  0  0  0  0  0  0  0  0  0
   -0.6122   -1.4782    0.0000 H   0  0  0  0  0  0  0  0  0  0  0  0
   -1.3858    0.8000    0.0000 C   0  0  0  0  0  0  0  0  0  0  0  0
   -1.9980    2.2782    0.0000 H   0  0  0  0  0  0  0  0  0  0  0  0
   -0.7733    2.2782    0.0000 H   0  0  0  0  0  0  0  0  0  0  0  0
   -2.7713    0.0000    0.0000 C   0  0  0  0  0  0  0  0  0  0  0  0
   -4.1569   -0.8000    0.0000 H   0  0  0  0  0  0  0  0  0  0  0  0
   -4.1569    0.8000    0.0000 H   0  0  0  0  0  0  0  0  0  0  0  0
   -2.7713   -1.6000    0.0000 H   0  0  0  0  0  0  0  0  0  0  0  0
    9.6996    0.8000    0.0000 C   0  0  0  0  0  0  0  0  0  0  0  0
    9.0871    2.2782    0.0000 H   0  0  0  0  0  0  0  0  0  0  0  0
   10.3118    2.2782    0.0000 H   0  0  0  0  0  0  0  0  0  0  0  0
   11.0852    0.0000    0.0000 C   0  0  0  0  0  0  0  0  0  0  0  0
   12.4708   -0.8000    0.0000 H   0  0  0  0  0  0  0  0  0  0  0  0
   12.4708    0.8000    0.0000 H   0  0  0  0  0  0  0  0  0  0  0  0
   11.0852   -1.6000    0.0000 H   0  0  0  0  0  0  0  0  0  0  0  0
  1  2  1  0  0  0  0
  1  3  1  0  0  0  0
  1  4  1  0  0  0  0
  4  5  1  0  0  0  0
  4  6  1  0  0  0  0
  4  7  1  0  0  0  0
  7  8  1  0  0  0  0
  7  9  2  0  0  0  0
  9 10  1  0  0  0  0
  9 11  1  0  0  0  0
 11 12  1  0  0  0  0
 11 13  1  0  0  0  0
 11 14  1  0  0  0  0
 14 15  1  0  0  0  0
 14 16  1  0  0  0  0
 14 17  1  0  0  0  0
 17 18  1  0  0  0  0
 17 19  1  0  0  0  0
 17 20  1  0  0  0  0
 20 21  1  0  0  0  0
 20 22  1  0  0  0  0
 20 23  1  0  0  0  0
 23 24  1  0  0  0  0
 23 25  1  0  0  0  0
 23 26  1  0  0  0  0
  1 27  1  0  0  0  0
 27 28  1  0  0  0  0
 27 29  1  0  0  0  0
 27 30  1  0  0  0  0
 30 31  1  0  0  0  0
 30 32  1  0  0  0  0
 30 33  1  0  0  0  0
M  END
> <ChemID>
103311

> <source_casrn>
764-96-5|764-97-6

> <CAS>
764-97-6

> <SMILES>
CCCCC/C=C/CCCC

> <NAME>
5-UNDECENE, (Z)-, 5-UNDECENE, (E)-

> <preferred_name>
Alkenes, C10-12, C11-rich

> <iupac>
(5E)-undec-5-ene

> <MPID>
22282|22283

> <dsstox_substance_id>
DTXSID00874001

> <Canonical_QSARr>
CCCCCC=CCCCC

> <InChI_Code_QSARr>
InChI=1S/C11H22/c1-3-5-7-9-11-10-8-6-4-2/h9,11H,3-8,10H2,1-2H3/b11-9+

> <InChI Key_QSARr>
NGCRXXLKJAAUQQ-PKNBQFBNSA-N

> <Salt_Solvent>
?

> <BP>
192.15

$$$$
103316
  -INDIGO-08031720192D

 43 42  0  0  0  0  0  0  0  0999 V2000
    9.6994    0.8000    0.0000 C   0  0  0  0  0  0  0  0  0  0  0  0
   11.0851    1.6000    0.0000 C   0  0  0  0  0  0  0  0  0  0  0  0
   12.4708    2.4000    0.0000 H   0  0  0  0  0  0  0  0  0  0  0  0
    8.3138    0.0000    0.0000 C   0  0  0  0  0  0  0  0  0  0  0  0
    8.9261   -1.4782    0.0000 H   0  0  0  0  0  0  0  0  0  0  0  0
    7.7015   -1.4782    0.0000 H   0  0  0  0  0  0  0  0  0  0  0  0
    6.9281    0.8000    0.0000 C   0  0  0  0  0  0  0  0  0  0  0  0
    6.3158    2.2782    0.0000 H   0  0  0  0  0  0  0  0  0  0  0  0
    7.5404    2.2782    0.0000 H   0  0  0  0  0  0  0  0  0  0  0  0
    5.5425    0.0000    0.0000 C   0  0  0  0  0  0  0  0  0  0  0  0
    6.1548   -1.4782    0.0000 H   0  0  0  0  0  0  0  0  0  0  0  0
    4.9301   -1.4782    0.0000 H   0  0  0  0  0  0  0  0  0  0  0  0
    4.1568    0.8000    0.0000 C   0  0  0  0  0  0  0  0  0  0  0  0
    3.5445    2.2782    0.0000 H   0  0  0  0  0  0  0  0  0  0  0  0
    4.7691    2.2782    0.0000 H   0  0  0  0  0  0  0  0  0  0  0  0
    2.7711    0.0000    0.0000 C   0  0  0  0  0  0  0  0  0  0  0  0
    3.3834   -1.4782    0.0000 H   0  0  0  0  0  0  0  0  0  0  0  0
    2.1592   -1.4782    0.0000 H   0  0  0  0  0  0  0  0  0  0  0  0
    1.3858    0.8000    0.0000 C   0  0  0  0  0  0  0  0  0  0  0  0
    0.7735    2.2782    0.0000 H   0  0  0  0  0  0  0  0  0  0  0  0
    1.9978    2.2782    0.0000 H   0  0  0  0  0  0  0  0  0  0  0  0
    0.0001    0.0000    0.0000 C   0  0  0  0  0  0  0  0  0  0  0  0
    0.6121   -1.4782    0.0000 H   0  0  0  0  0  0  0  0  0  0  0  0
   -0.6122   -1.4782    0.0000 H   0  0  0  0  0  0  0  0  0  0  0  0
   -1.3855    0.8000    0.0000 C   0  0  0  0  0  0  0  0  0  0  0  0
   -1.9978    2.2782    0.0000 H   0  0  0  0  0  0  0  0  0  0  0  0
   -0.7732    2.2782    0.0000 H   0  0  0  0  0  0  0  0  0  0  0  0
   -2.7712    0.0000    0.0000 C   0  0  0  0  0  0  0  0  0  0  0  0
   -2.1589   -1.4782    0.0000 H   0  0  0  0  0  0  0  0  0  0  0  0
   -3.3835   -1.4782    0.0000 H   0  0  0  0  0  0  0  0  0  0  0  0
   -4.1568    0.8000    0.0000 C   0  0  0  0  0  0  0  0  0  0  0  0
   -4.7692    2.2782    0.0000 H   0  0  0  0  0  0  0  0  0  0  0  0
   -3.5445    2.2782    0.0000 H   0  0  0  0  0  0  0  0  0  0  0  0
   -5.5425    0.0000    0.0000 C   0  0  0  0  0  0  0  0  0  0  0  0
   -4.9302   -1.4782    0.0000 H   0  0  0  0  0  0  0  0  0  0  0  0
   -6.1548   -1.4782    0.0000 H   0  0  0  0  0  0  0  0  0  0  0  0
   -6.9282    0.8000    0.0000 C   0  0  0  0  0  0  0  0  0  0  0  0
   -7.5405    2.2782    0.0000 H   0  0  0  0  0  0  0  0  0  0  0  0
   -6.3158    2.2782    0.0000 H   0  0  0  0  0  0  0  0  0  0  0  0
   -8.3138    0.0000    0.0000 C   0  0  0  0  0  0  0  0  0  0  0  0
   -9.6995   -0.8000    0.0000 H   0  0  0  0  0  0  0  0  0  0  0  0
   -9.6995    0.8000    0.0000 H   0  0  0  0  0  0  0  0  0  0  0  0
   -8.3138   -1.6000    0.0000 H   0  0  0  0  0  0  0  0  0  0  0  0
  1  2  3  0  0  0  0
  2  3  1  0  0  0  0
  1  4  1  0  0  0  0
  4  5  1  0  0  0  0
  4  6  1  0  0  0  0
  4  7  1  0  0  0  0
  7  8  1  0  0  0  0
  7  9  1  0  0  0  0
  7 10  1  0  0  0  0
 10 11  1  0  0  0  0
 10 12  1  0  0  0  0
 10 13  1  0  0  0  0
 13 14  1  0  0  0  0
 13 15  1  0  0  0  0
 13 16  1  0  0  0  0
 16 17  1  0  0  0  0
 16 18  1  0  0  0  0
 16 19  1  0  0  0  0
 19 20  1  0  0  0  0
 19 21  1  0  0  0  0
 19 22  1  0  0  0  0
 22 23  1  0  0  0  0
 22 24  1  0  0  0  0
 22 25  1  0  0  0  0
 25 26  1  0  0  0  0
 25 27  1  0  0  0  0
 25 28  1  0  0  0  0
 28 29  1  0  0  0  0
 28 30  1  0  0  0  0
 28 31  1  0  0  0  0
 31 32  1  0  0  0  0
 31 33  1  0  0  0  0
 31 34  1  0  0  0  0
 34 35  1  0  0  0  0
 34 36  1  0  0  0  0
 34 37  1  0  0  0  0
 37 38  1  0  0  0  0
 37 39  1  0  0  0  0
 37 40  1  0  0  0  0
 40 41  1  0  0  0  0
 40 42  1  0  0  0  0
 40 43  1  0  0  0  0
M  END
> <ChemID>
103316

> <source_casrn>
765-13-9

> <CAS>
765-13-9

> <SMILES>
CCCCCCCCCCCCCC#C

> <NAME>
1-Pentadecyne

> <preferred_name>
1-Pentadecyne

> <iupac>
pentadec-1-yne

> <MPID>
22287

> <dsstox_substance_id>
DTXSID9061097

> <Canonical_QSARr>
CCCCCCCCCCCCCC#C

> <InChI_Code_QSARr>
InChI=1S/C15H28/c1-3-5-7-9-11-13-15-14-12-10-8-6-4-2/h1H,4-15H2,2H3

> <InChI Key_QSARr>
DONJGKADZJEXRJ-UHFFFAOYSA-N

> <Salt_Solvent>
?

> <BP>
268.0

$$$$
103321
  -INDIGO-08031720192D

 14 14  0  0  0  0  0  0  0  0999 V2000
   -0.0000    0.0000    0.0000 C   0  0  0  0  0  0  0  0  0  0  0  0
    1.0285   -1.2257    0.0000 H   0  0  0  0  0  0  0  0  0  0  0  0
    1.0285    1.2257    0.0000 C   0  0  0  0  0  0  0  0  0  0  0  0
    2.6042    0.9479    0.0000 C   0  0  0  0  0  0  0  0  0  0  0  0
    4.1798    0.6700    0.0000 H   0  0  0  0  0  0  0  0  0  0  0  0
    3.6326    2.1735    0.0000 H   0  0  0  0  0  0  0  0  0  0  0  0
    3.1514   -0.5557    0.0000 H   0  0  0  0  0  0  0  0  0  0  0  0
    0.4813    2.7292    0.0000 O   0  0  0  0  0  0  0  0  0  0  0  0
   -1.3857   -0.8000    0.0000 C   0  0  0  0  0  0  0  0  0  0  0  0
   -0.8384   -2.3035    0.0000 H   0  0  0  0  0  0  0  0  0  0  0  0
   -2.9613   -1.0778    0.0000 H   0  0  0  0  0  0  0  0  0  0  0  0
   -1.3857    0.8000    0.0000 C   0  0  0  0  0  0  0  0  0  0  0  0
   -2.9613    1.0778    0.0000 H   0  0  0  0  0  0  0  0  0  0  0  0
   -0.8384    2.3035    0.0000 H   0  0  0  0  0  0  0  0  0  0  0  0
  1  2  1  0  0  0  0
  1  3  1  0  0  0  0
  3  4  1  0  0  0  0
  4  5  1  0  0  0  0
  4  6  1  0  0  0  0
  4  7  1  0  0  0  0
  3  8  2  0  0  0  0
  1  9  1  0  0  0  0
  9 10  1  0  0  0  0
  9 11  1  0  0  0  0
  9 12  1  0  0  0  0
 12  1  1  0  0  0  0
 12 13  1  0  0  0  0
 12 14  1  0  0  0  0
M  END
> <ChemID>
103321

> <source_casrn>
765-43-5

> <CAS>
765-43-5

> <SMILES>
CC(=O)C1CC1

> <NAME>
CYCLOPROPYL METHYL KETONE

> <preferred_name>
Cyclopropyl methyl ketone

> <iupac>
1-cyclopropylethanone

> <MPID>
22291

> <dsstox_substance_id>
DTXSID9074854

> <Canonical_QSARr>
CC(=O)C1CC1

> <InChI_Code_QSARr>
InChI=1S/C5H8O/c1-4(6)5-2-3-5/h5H,2-3H2,1H3

> <InChI Key_QSARr>
HVCFCNAITDHQFX-UHFFFAOYSA-N

> <Salt_Solvent>
?

> <BP>
111.3

$$$$
103325
  -INDIGO-08031720192D

 22 22  0  0  0  0  0  0  0  0999 V2000
    2.9520   -1.7508    0.0000 O   0  0  0  0  0  0  0  0  0  0  0  0
    4.3647   -2.5020    0.0000 H   0  0  0  0  0  0  0  0  0  0  0  0
    2.8963   -0.1518    0.0000 C   0  0  0  0  0  0  0  0  0  0  0  0
    4.4743    0.1123    0.0000 H   0  0  0  0  0  0  0  0  0  0  0  0
    3.8253    1.1508    0.0000 H   0  0  0  0  0  0  0  0  0  0  0  0
    1.4835    0.5994    0.0000 C   0  0  0  0  0  0  0  0  0  0  0  0
    1.0829    2.1484    0.0000 H   0  0  0  0  0  0  0  0  0  0  0  0
    2.2956    1.9780    0.0000 H   0  0  0  0  0  0  0  0  0  0  0  0
    0.0000   -0.0000    0.0000 C   0  0  0  0  0  0  0  0  0  0  0  0
   -0.1673    1.5912    0.0000 H   0  0  0  0  0  0  0  0  0  0  0  0
    0.4944   -1.5217    0.0000 C   0  0  0  0  0  0  0  0  0  0  0  0
    1.9560   -0.8709    0.0000 H   0  0  0  0  0  0  0  0  0  0  0  0
    1.2945   -2.9074    0.0000 H   0  0  0  0  0  0  0  0  0  0  0  0
   -0.8000   -2.4621    0.0000 C   0  0  0  0  0  0  0  0  0  0  0  0
    0.2706   -3.6512    0.0000 H   0  0  0  0  0  0  0  0  0  0  0  0
   -1.8706   -3.6512    0.0000 H   0  0  0  0  0  0  0  0  0  0  0  0
   -2.0944   -1.5217    0.0000 C   0  0  0  0  0  0  0  0  0  0  0  0
   -2.8944   -2.9074    0.0000 H   0  0  0  0  0  0  0  0  0  0  0  0
   -3.5561   -0.8709    0.0000 H   0  0  0  0  0  0  0  0  0  0  0  0
   -1.5999   -0.0000    0.0000 C   0  0  0  0  0  0  0  0  0  0  0  0
   -3.1651    0.3326    0.0000 H   0  0  0  0  0  0  0  0  0  0  0  0
   -1.4328    1.5912    0.0000 H   0  0  0  0  0  0  0  0  0  0  0  0
  1  2  1  0  0  0  0
  1  3  1  0  0  0  0
  3  4  1  0  0  0  0
  3  5  1  0  0  0  0
  3  6  1  0  0  0  0
  6  7  1  0  0  0  0
  6  8  1  0  0  0  0
  6  9  1  0  0  0  0
  9 10  1  0  0  0  0
  9 11  1  0  0  0  0
 11 12  1  0  0  0  0
 11 13  1  0  0  0  0
 11 14  1  0  0  0  0
 14 15  1  0  0  0  0
 14 16  1  0  0  0  0
 14 17  1  0  0  0  0
 17 18  1  0  0  0  0
 17 19  1  0  0  0  0
 17 20  1  0  0  0  0
 20  9  1  0  0  0  0
 20 21  1  0  0  0  0
 20 22  1  0  0  0  0
M  END
> <ChemID>
103325

> <source_casrn>
766-00-7

> <CAS>
766-00-7

> <SMILES>
OCCC1CCCC1

> <NAME>
2-Hydroxyethylcyclopentane

> <preferred_name>
Cyclopentaneethanol

> <iupac>


> <MPID>
22295

> <dsstox_substance_id>
DTXSID80227399

> <Canonical_QSARr>
OCCC1CCCC1

> <InChI_Code_QSARr>
InChI=1S/C7H14O/c8-6-5-7-3-1-2-4-7/h7-8H,1-6H2

> <InChI Key_QSARr>
JEXQWCBPEWHFKC-UHFFFAOYSA-N

> <Salt_Solvent>
?

> <BP>
183.0

$$$$
103331
  -INDIGO-08031720192D

 16 16  0  0  0  0  0  0  0  0999 V2000
    0.0001   -0.0000    0.0000 C   0  0  0  0  0  0  0  0  0  0  0  0
    0.0001   -1.6000    0.0000 C   0  0  0  0  0  0  0  0  0  0  0  0
    1.3856   -2.4000    0.0000 Cl  0  0  0  0  0  0  0  0  0  0  0  0
   -1.3856   -2.4000    0.0000 C   0  0  0  0  0  0  0  0  0  0  0  0
   -1.3856   -4.0000    0.0000 H   0  0  0  0  0  0  0  0  0  0  0  0
   -2.7712   -1.6000    0.0000 C   0  0  0  0  0  0  0  0  0  0  0  0
   -4.1569   -2.4000    0.0000 H   0  0  0  0  0  0  0  0  0  0  0  0
   -2.7712   -0.0000    0.0000 C   0  0  0  0  0  0  0  0  0  0  0  0
   -4.1569    0.8000    0.0000 H   0  0  0  0  0  0  0  0  0  0  0  0
   -1.3856    0.8000    0.0000 C   0  0  0  0  0  0  0  0  0  0  0  0
   -1.3856    2.4000    0.0000 H   0  0  0  0  0  0  0  0  0  0  0  0
    1.3856    0.8000    0.0000 O   0  0  0  0  0  0  0  0  0  0  0  0
    2.7713   -0.0000    0.0000 C   0  0  0  0  0  0  0  0  0  0  0  0
    4.1569    0.8000    0.0000 H   0  0  0  0  0  0  0  0  0  0  0  0
    4.1569   -0.8000    0.0000 H   0  0  0  0  0  0  0  0  0  0  0  0
    2.7713    1.6000    0.0000 H   0  0  0  0  0  0  0  0  0  0  0  0
  1  2  1  0  0  0  0
  2  3  1  0  0  0  0
  2  4  2  0  0  0  0
  4  5  1  0  0  0  0
  4  6  1  0  0  0  0
  6  7  1  0  0  0  0
  6  8  2  0  0  0  0
  8  9  1  0  0  0  0
  8 10  1  0  0  0  0
 10  1  2  0  0  0  0
 10 11  1  0  0  0  0
  1 12  1  0  0  0  0
 12 13  1  0  0  0  0
 13 14  1  0  0  0  0
 13 15  1  0  0  0  0
 13 16  1  0  0  0  0
M  END
> <ChemID>
103331

> <source_casrn>
766-51-8

> <CAS>
766-51-8

> <SMILES>
COc1ccccc1Cl

> <NAME>
O-CHLOROANISOLE

> <preferred_name>
o-Chloroanisole

> <iupac>
1-Chloro-2-methoxybenzene

> <MPID>
22299

> <dsstox_substance_id>
DTXSID1061104

> <Canonical_QSARr>
COc1ccccc1Cl

> <InChI_Code_QSARr>
InChI=1S/C7H7ClO/c1-9-7-5-3-2-4-6(7)8/h2-5H,1H3

> <InChI Key_QSARr>
QGRPVMLBTFGQDQ-UHFFFAOYSA-N

> <Salt_Solvent>
?

> <BP>
198.5

$$$$
103336
  -INDIGO-08031720192D

 17 17  0  0  0  0  0  0  0  0999 V2000
    0.0000   -0.0000    0.0000 C   0  0  0  0  0  0  0  0  0  0  0  0
   -0.7999    1.3856    0.0000 C   0  0  0  0  0  0  0  0  0  0  0  0
    0.0000    2.7713    0.0000 H   0  0  0  0  0  0  0  0  0  0  0  0
   -2.3999    1.3856    0.0000 C   0  0  0  0  0  0  0  0  0  0  0  0
   -3.2001    2.7713    0.0000 H   0  0  0  0  0  0  0  0  0  0  0  0
   -3.2001   -0.0000    0.0000 C   0  0  0  0  0  0  0  0  0  0  0  0
   -4.8000   -0.0000    0.0000 C   0  0  0  0  0  0  0  0  0  0  0  0
   -6.4000   -0.0000    0.0000 C   0  0  0  0  0  0  0  0  0  0  0  0
   -8.0000   -0.0000    0.0000 H   0  0  0  0  0  0  0  0  0  0  0  0
   -2.3999   -1.3856    0.0000 C   0  0  0  0  0  0  0  0  0  0  0  0
   -3.2001   -2.7713    0.0000 H   0  0  0  0  0  0  0  0  0  0  0  0
   -0.7999   -1.3856    0.0000 C   0  0  0  0  0  0  0  0  0  0  0  0
    0.0000   -2.7713    0.0000 H   0  0  0  0  0  0  0  0  0  0  0  0
    1.6000   -0.0000    0.0000 C   0  0  0  0  0  0  0  0  0  0  0  0
    3.2000   -0.0000    0.0000 H   0  0  0  0  0  0  0  0  0  0  0  0
    2.4000   -1.3856    0.0000 H   0  0  0  0  0  0  0  0  0  0  0  0
    2.4000    1.3856    0.0000 H   0  0  0  0  0  0  0  0  0  0  0  0
  1  2  1  0  0  0  0
  2  3  1  0  0  0  0
  2  4  2  0  0  0  0
  4  5  1  0  0  0  0
  4  6  1  0  0  0  0
  6  7  1  0  0  0  0
  7  8  3  0  0  0  0
  8  9  1  0  0  0  0
  6 10  2  0  0  0  0
 10 11  1  0  0  0  0
 10 12  1  0  0  0  0
 12  1  2  0  0  0  0
 12 13  1  0  0  0  0
  1 14  1  0  0  0  0
 14 15  1  0  0  0  0
 14 16  1  0  0  0  0
 14 17  1  0  0  0  0
M  END
> <ChemID>
103336

> <source_casrn>
766-97-2

> <CAS>
766-97-2

> <SMILES>
Cc1ccc(cc1)C#C

> <NAME>
Benzene, 1-ethynyl-4-methyl- (9CI)

> <preferred_name>
Benzene, 1-ethynyl-4-methyl- (9CI)

> <iupac>
1-Ethynyl-4-methylbenzene

> <MPID>
22303

> <dsstox_substance_id>
DTXSID30227420

> <Canonical_QSARr>
Cc1ccc(cc1)C#C

> <InChI_Code_QSARr>
InChI=1S/C9H8/c1-3-9-6-4-8(2)5-7-9/h1,4-7H,2H3

> <InChI Key_QSARr>
KSZVOXHGCKKOLL-UHFFFAOYSA-N

> <Salt_Solvent>
?

> <BP>
169.0

$$$$
103340
  -INDIGO-08031720192D

 22 23  0  0  0  0  0  0  0  0999 V2000
    0.1673    1.5913    0.0000 C   0  0  0  0  0  0  0  0  0  0  0  0
    0.6617    3.1129    0.0000 H   0  0  0  0  0  0  0  0  0  0  0  0
    1.7322    1.2586    0.0000 H   0  0  0  0  0  0  0  0  0  0  0  0
   -1.2944    2.2420    0.0000 C   0  0  0  0  0  0  0  0  0  0  0  0
   -0.4944    3.6277    0.0000 H   0  0  0  0  0  0  0  0  0  0  0  0
   -2.5889    3.1825    0.0000 H   0  0  0  0  0  0  0  0  0  0  0  0
   -2.3651    1.0529    0.0000 C   0  0  0  0  0  0  0  0  0  0  0  0
   -1.5651   -0.3326    0.0000 C   0  0  0  0  0  0  0  0  0  0  0  0
   -2.3651   -1.7183    0.0000 C   0  0  0  0  0  0  0  0  0  0  0  0
   -1.5651   -3.1039    0.0000 H   0  0  0  0  0  0  0  0  0  0  0  0
   -3.9651   -1.7183    0.0000 C   0  0  0  0  0  0  0  0  0  0  0  0
   -4.7651   -3.1039    0.0000 H   0  0  0  0  0  0  0  0  0  0  0  0
   -4.7651   -0.3326    0.0000 C   0  0  0  0  0  0  0  0  0  0  0  0
   -6.3650   -0.3326    0.0000 H   0  0  0  0  0  0  0  0  0  0  0  0
   -3.9651    1.0529    0.0000 C   0  0  0  0  0  0  0  0  0  0  0  0
   -4.7651    2.4386    0.0000 H   0  0  0  0  0  0  0  0  0  0  0  0
   -0.0000   -0.0000    0.0000 C   0  0  0  0  0  0  0  0  0  0  0  0
    0.1673   -1.5912    0.0000 H   0  0  0  0  0  0  0  0  0  0  0  0
    1.5036   -0.5472    0.0000 C   0  0  0  0  0  0  0  0  0  0  0  0
    3.0070   -1.0945    0.0000 H   0  0  0  0  0  0  0  0  0  0  0  0
    2.7292    0.4812    0.0000 H   0  0  0  0  0  0  0  0  0  0  0  0
    1.7813   -2.1229    0.0000 H   0  0  0  0  0  0  0  0  0  0  0  0
  1  2  1  0  0  0  0
  1  3  1  0  0  0  0
  1  4  1  0  0  0  0
  4  5  1  0  0  0  0
  4  6  1  0  0  0  0
  4  7  1  0  0  0  0
  7  8  1  0  0  0  0
  8  9  2  0  0  0  0
  9 10  1  0  0  0  0
  9 11  1  0  0  0  0
 11 12  1  0  0  0  0
 11 13  2  0  0  0  0
 13 14  1  0  0  0  0
 13 15  1  0  0  0  0
 15  7  2  0  0  0  0
 15 16  1  0  0  0  0
  8 17  1  0  0  0  0
 17  1  1  0  0  0  0
 17 18  1  0  0  0  0
 17 19  1  0  0  0  0
 19 20  1  0  0  0  0
 19 21  1  0  0  0  0
 19 22  1  0  0  0  0
M  END
> <ChemID>
103340

> <source_casrn>
767-58-8

> <CAS>
NOCAS_862406

> <SMILES>
CC1CCc2ccccc21

> <NAME>
1H-INDENE, 2,3-DIHYDRO-1-METHYL-

> <preferred_name>


> <iupac>


> <MPID>
22307

> <dsstox_substance_id>
DTXSID80862406

> <Canonical_QSARr>
CC1CCc2ccccc21

> <InChI_Code_QSARr>
InChI=1S/C10H12/c1-8-6-7-9-4-2-3-5-10(8)9/h2-5,8H,6-7H2,1H3

> <InChI Key_QSARr>
FIPKSKMDTAQBDJ-UHFFFAOYSA-N

> <Salt_Solvent>
?

> <BP>
190.6

$$$$
103345
  -INDIGO-08031720192D

 24 24  0  0  0  0  0  0  0  0999 V2000
    0.0000   -1.6000    0.0000 C   0  0  0  0  0  0  0  0  0  0  0  0
    0.2779   -3.1757    0.0000 H   0  0  0  0  0  0  0  0  0  0  0  0
   -1.2257   -2.6285    0.0000 H   0  0  0  0  0  0  0  0  0  0  0  0
   -1.5035   -1.0527    0.0000 H   0  0  0  0  0  0  0  0  0  0  0  0
    0.0000    0.0000    0.0000 Si  0  0  0  0  0  0  0  0  0  0  0  0
   -1.6001   -0.0000    0.0000 C   0  0  0  0  0  0  0  0  0  0  0  0
   -3.2000   -0.0000    0.0000 H   0  0  0  0  0  0  0  0  0  0  0  0
   -2.6284   -1.2256    0.0000 H   0  0  0  0  0  0  0  0  0  0  0  0
   -2.6284    1.2256    0.0000 H   0  0  0  0  0  0  0  0  0  0  0  0
    0.0000    1.6000    0.0000 C   0  0  0  0  0  0  0  0  0  0  0  0
    0.2779    3.1757    0.0000 H   0  0  0  0  0  0  0  0  0  0  0  0
   -1.2257    2.6285    0.0000 H   0  0  0  0  0  0  0  0  0  0  0  0
   -1.5035    1.0527    0.0000 H   0  0  0  0  0  0  0  0  0  0  0  0
    1.6001    0.0000    0.0000 C   0  0  0  0  0  0  0  0  0  0  0  0
    2.4000    1.3857    0.0000 C   0  0  0  0  0  0  0  0  0  0  0  0
    1.6001    2.7713    0.0000 H   0  0  0  0  0  0  0  0  0  0  0  0
    4.0000    1.3857    0.0000 C   0  0  0  0  0  0  0  0  0  0  0  0
    4.8001    2.7713    0.0000 H   0  0  0  0  0  0  0  0  0  0  0  0
    4.8001    0.0000    0.0000 C   0  0  0  0  0  0  0  0  0  0  0  0
    6.4000    0.0000    0.0000 H   0  0  0  0  0  0  0  0  0  0  0  0
    4.0000   -1.3857    0.0000 C   0  0  0  0  0  0  0  0  0  0  0  0
    4.8001   -2.7713    0.0000 H   0  0  0  0  0  0  0  0  0  0  0  0
    2.4000   -1.3857    0.0000 C   0  0  0  0  0  0  0  0  0  0  0  0
    1.5999   -2.7713    0.0000 H   0  0  0  0  0  0  0  0  0  0  0  0
  1  2  1  0  0  0  0
  1  3  1  0  0  0  0
  1  4  1  0  0  0  0
  1  5  1  0  0  0  0
  5  6  1  0  0  0  0
  6  7  1  0  0  0  0
  6  8  1  0  0  0  0
  6  9  1  0  0  0  0
  5 10  1  0  0  0  0
 10 11  1  0  0  0  0
 10 12  1  0  0  0  0
 10 13  1  0  0  0  0
  5 14  1  0  0  0  0
 14 15  1  0  0  0  0
 15 16  1  0  0  0  0
 15 17  2  0  0  0  0
 17 18  1  0  0  0  0
 17 19  1  0  0  0  0
 19 20  1  0  0  0  0
 19 21  2  0  0  0  0
 21 22  1  0  0  0  0
 21 23  1  0  0  0  0
 23 14  2  0  0  0  0
 23 24  1  0  0  0  0
M  END
> <ChemID>
103345

> <source_casrn>
768-32-1

> <CAS>
768-32-1

> <SMILES>
C[Si](C)(C)c1ccccc1

> <NAME>
SILANE, TRIMETHYL PHENYL

> <preferred_name>
Silane, trimethylphenyl-

> <iupac>
trimethyl-phenylsilane

> <MPID>
22312

> <dsstox_substance_id>
DTXSID6061109

> <Canonical_QSARr>
C[Si](C)(C)c1ccccc1

> <InChI_Code_QSARr>
InChI=1S/C9H14Si/c1-10(2,3)9-7-5-4-6-8-9/h4-8H,1-3H3

> <InChI Key_QSARr>
KXFSUVJPEQYUGN-UHFFFAOYSA-N

> <Salt_Solvent>
?

> <BP>
169.5

$$$$
103350
  -INDIGO-08031720192D

 26 26  0  0  0  0  0  0  0  0999 V2000
   -1.3856    0.8000    0.0000 N   0  0  0  0  0  0  0  0  0  0  0  0
    0.0001   -0.0001    0.0000 C   0  0  0  0  0  0  0  0  0  0  0  0
    1.3856    0.8000    0.0000 C   0  0  0  0  0  0  0  0  0  0  0  0
    1.3856    2.4000    0.0000 C   0  0  0  0  0  0  0  0  0  0  0  0
    1.3856    4.0000    0.0000 H   0  0  0  0  0  0  0  0  0  0  0  0
    2.7713    3.2001    0.0000 H   0  0  0  0  0  0  0  0  0  0  0  0
    0.0001    3.2001    0.0000 H   0  0  0  0  0  0  0  0  0  0  0  0
    2.7713    0.0001    0.0000 C   0  0  0  0  0  0  0  0  0  0  0  0
    4.1569    0.8000    0.0000 H   0  0  0  0  0  0  0  0  0  0  0  0
    2.7713   -1.6001    0.0000 C   0  0  0  0  0  0  0  0  0  0  0  0
    4.1569   -2.4000    0.0000 H   0  0  0  0  0  0  0  0  0  0  0  0
    1.3856   -2.4000    0.0000 C   0  0  0  0  0  0  0  0  0  0  0  0
    1.3856   -4.0000    0.0000 H   0  0  0  0  0  0  0  0  0  0  0  0
    0.0001   -1.6001    0.0000 C   0  0  0  0  0  0  0  0  0  0  0  0
   -1.3856   -2.4000    0.0000 C   0  0  0  0  0  0  0  0  0  0  0  0
   -2.7712   -3.1999    0.0000 H   0  0  0  0  0  0  0  0  0  0  0  0
   -1.3856   -4.0000    0.0000 H   0  0  0  0  0  0  0  0  0  0  0  0
   -2.7712   -1.5999    0.0000 H   0  0  0  0  0  0  0  0  0  0  0  0
   -1.3856    2.4000    0.0000 C   0  0  0  0  0  0  0  0  0  0  0  0
   -2.7713    3.1999    0.0000 H   0  0  0  0  0  0  0  0  0  0  0  0
   -1.3856    4.0000    0.0000 H   0  0  0  0  0  0  0  0  0  0  0  0
   -2.7713    1.5999    0.0000 H   0  0  0  0  0  0  0  0  0  0  0  0
   -2.7712   -0.0001    0.0000 C   0  0  0  0  0  0  0  0  0  0  0  0
   -4.1569   -0.8000    0.0000 H   0  0  0  0  0  0  0  0  0  0  0  0
   -4.1569    0.8000    0.0000 H   0  0  0  0  0  0  0  0  0  0  0  0
   -1.3856   -0.8000    0.0000 H   0  0  0  0  0  0  0  0  0  0  0  0
  1  2  1  0  0  0  0
  2  3  1  0  0  0  0
  3  4  1  0  0  0  0
  4  5  1  0  0  0  0
  4  6  1  0  0  0  0
  4  7  1  0  0  0  0
  3  8  2  0  0  0  0
  8  9  1  0  0  0  0
  8 10  1  0  0  0  0
 10 11  1  0  0  0  0
 10 12  2  0  0  0  0
 12 13  1  0  0  0  0
 12 14  1  0  0  0  0
 14  2  2  0  0  0  0
 14 15  1  0  0  0  0
 15 16  1  0  0  0  0
 15 17  1  0  0  0  0
 15 18  1  0  0  0  0
  1 19  1  0  0  0  0
 19 20  1  0  0  0  0
 19 21  1  0  0  0  0
 19 22  1  0  0  0  0
  1 23  1  0  0  0  0
 23 24  1  0  0  0  0
 23 25  1  0  0  0  0
 23 26  1  0  0  0  0
M  END
> <ChemID>
103350

> <source_casrn>
769-06-2

> <CAS>
769-06-2

> <SMILES>
CN(C)c1c(C)cccc1C

> <NAME>
Benzenamine, N,N,2,6-tetramethyl-

> <preferred_name>
Benzenamine, N,N,2,6-tetramethyl-

> <iupac>
N,N,2,6-Tetramethylaniline

> <MPID>
22316

> <dsstox_substance_id>
DTXSID5061114

> <Canonical_QSARr>
CN(C)c1c(C)cccc1C

> <InChI_Code_QSARr>
InChI=1S/C10H15N/c1-8-6-5-7-9(2)10(8)11(3)4/h5-7H,1-4H3

> <InChI Key_QSARr>
SCVRZFQSPISLTD-UHFFFAOYSA-N

> <Salt_Solvent>
?

> <BP>
196.0

$$$$
103354
  -INDIGO-08031720192D

 26 26  0  0  0  0  0  0  0  0999 V2000
    6.4000   -0.0000    0.0000 N   0  0  0  0  0  0  0  0  0  0  0  0
    7.2000    1.3857    0.0000 H   0  0  0  0  0  0  0  0  0  0  0  0
    7.2000   -1.3857    0.0000 H   0  0  0  0  0  0  0  0  0  0  0  0
    4.8001    0.0000    0.0000 C   0  0  0  0  0  0  0  0  0  0  0  0
    3.9999    1.3857    0.0000 C   0  0  0  0  0  0  0  0  0  0  0  0
    4.8001    2.7713    0.0000 H   0  0  0  0  0  0  0  0  0  0  0  0
    2.4000    1.3857    0.0000 C   0  0  0  0  0  0  0  0  0  0  0  0
    1.6000    2.7713    0.0000 H   0  0  0  0  0  0  0  0  0  0  0  0
    1.6000    0.0000    0.0000 C   0  0  0  0  0  0  0  0  0  0  0  0
    0.0001    0.0000    0.0000 C   0  0  0  0  0  0  0  0  0  0  0  0
   -1.6000   -0.0000    0.0000 C   0  0  0  0  0  0  0  0  0  0  0  0
   -3.2000   -0.0000    0.0000 H   0  0  0  0  0  0  0  0  0  0  0  0
   -2.6284   -1.2256    0.0000 H   0  0  0  0  0  0  0  0  0  0  0  0
   -2.6284    1.2256    0.0000 H   0  0  0  0  0  0  0  0  0  0  0  0
    0.0001    1.6000    0.0000 C   0  0  0  0  0  0  0  0  0  0  0  0
    0.2778    3.1757    0.0000 H   0  0  0  0  0  0  0  0  0  0  0  0
   -1.2257    2.6285    0.0000 H   0  0  0  0  0  0  0  0  0  0  0  0
   -1.5036    1.0527    0.0000 H   0  0  0  0  0  0  0  0  0  0  0  0
    0.0001   -1.6000    0.0000 C   0  0  0  0  0  0  0  0  0  0  0  0
    0.2778   -3.1757    0.0000 H   0  0  0  0  0  0  0  0  0  0  0  0
   -1.2257   -2.6285    0.0000 H   0  0  0  0  0  0  0  0  0  0  0  0
   -1.5036   -1.0527    0.0000 H   0  0  0  0  0  0  0  0  0  0  0  0
    2.4000   -1.3857    0.0000 C   0  0  0  0  0  0  0  0  0  0  0  0
    1.6000   -2.7713    0.0000 H   0  0  0  0  0  0  0  0  0  0  0  0
    3.9999   -1.3857    0.0000 C   0  0  0  0  0  0  0  0  0  0  0  0
    4.8001   -2.7713    0.0000 H   0  0  0  0  0  0  0  0  0  0  0  0
  1  2  1  0  0  0  0
  1  3  1  0  0  0  0
  1  4  1  0  0  0  0
  4  5  1  0  0  0  0
  5  6  1  0  0  0  0
  5  7  2  0  0  0  0
  7  8  1  0  0  0  0
  7  9  1  0  0  0  0
  9 10  1  0  0  0  0
 10 11  1  0  0  0  0
 11 12  1  0  0  0  0
 11 13  1  0  0  0  0
 11 14  1  0  0  0  0
 10 15  1  0  0  0  0
 15 16  1  0  0  0  0
 15 17  1  0  0  0  0
 15 18  1  0  0  0  0
 10 19  1  0  0  0  0
 19 20  1  0  0  0  0
 19 21  1  0  0  0  0
 19 22  1  0  0  0  0
  9 23  2  0  0  0  0
 23 24  1  0  0  0  0
 23 25  1  0  0  0  0
 25  4  2  0  0  0  0
 25 26  1  0  0  0  0
M  END
> <ChemID>
103354

> <source_casrn>
769-92-6

> <CAS>
769-92-6

> <SMILES>
CC(C)(C)c1ccc(N)cc1

> <NAME>
BENZENAMINE, 4-(1,1-DIMETHYLETHYL)

> <preferred_name>
4-tert-Butylaniline

> <iupac>
4-tert-butylaniline

> <MPID>
22320

> <dsstox_substance_id>
DTXSID0048181

> <Canonical_QSARr>
CC(C)(C)c1ccc(N)cc1

> <InChI_Code_QSARr>
InChI=1S/C10H15N/c1-10(2,3)8-4-6-9(11)7-5-8/h4-7H,11H2,1-3H3

> <InChI Key_QSARr>
WRDWWAVNELMWAM-UHFFFAOYSA-N

> <Salt_Solvent>
?

> <BP>
241.0

$$$$
103358
  -INDIGO-08031720192D

 15 15  0  0  0  0  0  0  0  0999 V2000
    0.0000    2.7713    0.0000 F   0  0  0  0  0  0  0  0  0  0  0  0
   -0.8001    1.3856    0.0000 C   0  0  0  0  0  0  0  0  0  0  0  0
    0.0000   -0.0000    0.0000 C   0  0  0  0  0  0  0  0  0  0  0  0
    1.6000   -0.0000    0.0000 C   0  0  0  0  0  0  0  0  0  0  0  0
    3.2000   -0.0000    0.0000 H   0  0  0  0  0  0  0  0  0  0  0  0
    2.4001    1.3856    0.0000 H   0  0  0  0  0  0  0  0  0  0  0  0
    2.4001   -1.3856    0.0000 H   0  0  0  0  0  0  0  0  0  0  0  0
   -0.7999   -1.3856    0.0000 C   0  0  0  0  0  0  0  0  0  0  0  0
    0.0000   -2.7713    0.0000 F   0  0  0  0  0  0  0  0  0  0  0  0
   -2.4001   -1.3856    0.0000 C   0  0  0  0  0  0  0  0  0  0  0  0
   -3.2000   -2.7713    0.0000 F   0  0  0  0  0  0  0  0  0  0  0  0
   -3.2000   -0.0000    0.0000 C   0  0  0  0  0  0  0  0  0  0  0  0
   -4.8000   -0.0000    0.0000 F   0  0  0  0  0  0  0  0  0  0  0  0
   -2.4001    1.3856    0.0000 C   0  0  0  0  0  0  0  0  0  0  0  0
   -3.2000    2.7713    0.0000 F   0  0  0  0  0  0  0  0  0  0  0  0
  1  2  1  0  0  0  0
  2  3  1  0  0  0  0
  3  4  1  0  0  0  0
  4  5  1  0  0  0  0
  4  6  1  0  0  0  0
  4  7  1  0  0  0  0
  3  8  2  0  0  0  0
  8  9  1  0  0  0  0
  8 10  1  0  0  0  0
 10 11  1  0  0  0  0
 10 12  2  0  0  0  0
 12 13  1  0  0  0  0
 12 14  1  0  0  0  0
 14  2  2  0  0  0  0
 14 15  1  0  0  0  0
M  END
> <ChemID>
103358

> <source_casrn>
771-56-2

> <CAS>
771-56-2

> <SMILES>
Cc1c(F)c(F)c(F)c(F)c1F

> <NAME>
N-METHYLPENTAFLUOROBENZENE

> <preferred_name>
Pentafluoromethylbenzene

> <iupac>
1,2,3,4,5-pentafluoro-6-methylbenzene

> <MPID>
22324

> <dsstox_substance_id>
DTXSID0061119

> <Canonical_QSARr>
Cc1c(F)c(F)c(F)c(F)c1F

> <InChI_Code_QSARr>
InChI=1S/C7H3F5/c1-2-3(8)5(10)7(12)6(11)4(2)9/h1H3

> <InChI Key_QSARr>
SXPRVMIZFRCAGC-UHFFFAOYSA-N

> <Salt_Solvent>
?

> <BP>
117.5

$$$$
103362
  -INDIGO-08031720192D

 26 27  0  0  0  0  0  0  0  0999 V2000
    2.4001    1.3856    0.0000 C   0  0  0  0  0  0  0  0  0  0  0  0
    1.6001    2.7713    0.0000 C   0  0  0  0  0  0  0  0  0  0  0  0
    2.4001    4.1569    0.0000 H   0  0  0  0  0  0  0  0  0  0  0  0
    0.0000    2.7713    0.0000 C   0  0  0  0  0  0  0  0  0  0  0  0
    0.2779    4.3470    0.0000 H   0  0  0  0  0  0  0  0  0  0  0  0
   -1.5035    3.3185    0.0000 H   0  0  0  0  0  0  0  0  0  0  0  0
   -0.8000    1.3856    0.0000 C   0  0  0  0  0  0  0  0  0  0  0  0
   -2.0257    2.4141    0.0000 H   0  0  0  0  0  0  0  0  0  0  0  0
   -2.0257    0.3571    0.0000 H   0  0  0  0  0  0  0  0  0  0  0  0
    0.0000   -0.0000    0.0000 C   0  0  0  0  0  0  0  0  0  0  0  0
   -1.5035   -0.5472    0.0000 H   0  0  0  0  0  0  0  0  0  0  0  0
    0.2779   -1.5757    0.0000 H   0  0  0  0  0  0  0  0  0  0  0  0
    1.6001   -0.0000    0.0000 C   0  0  0  0  0  0  0  0  0  0  0  0
    1.3222   -1.5757    0.0000 H   0  0  0  0  0  0  0  0  0  0  0  0
    3.1035   -0.5472    0.0000 H   0  0  0  0  0  0  0  0  0  0  0  0
    3.9999    1.3856    0.0000 C   0  0  0  0  0  0  0  0  0  0  0  0
    4.7999   -0.0000    0.0000 C   0  0  0  0  0  0  0  0  0  0  0  0
    3.9999   -1.3856    0.0000 H   0  0  0  0  0  0  0  0  0  0  0  0
    6.4000   -0.0000    0.0000 C   0  0  0  0  0  0  0  0  0  0  0  0
    7.2000   -1.3856    0.0000 H   0  0  0  0  0  0  0  0  0  0  0  0
    7.2000    1.3856    0.0000 C   0  0  0  0  0  0  0  0  0  0  0  0
    8.8000    1.3857    0.0000 H   0  0  0  0  0  0  0  0  0  0  0  0
    6.4000    2.7713    0.0000 C   0  0  0  0  0  0  0  0  0  0  0  0
    7.2000    4.1569    0.0000 H   0  0  0  0  0  0  0  0  0  0  0  0
    4.7999    2.7713    0.0000 C   0  0  0  0  0  0  0  0  0  0  0  0
    3.9999    4.1569    0.0000 H   0  0  0  0  0  0  0  0  0  0  0  0
  1  2  2  0  0  0  0
  2  3  1  0  0  0  0
  2  4  1  0  0  0  0
  4  5  1  0  0  0  0
  4  6  1  0  0  0  0
  4  7  1  0  0  0  0
  7  8  1  0  0  0  0
  7  9  1  0  0  0  0
  7 10  1  0  0  0  0
 10 11  1  0  0  0  0
 10 12  1  0  0  0  0
 10 13  1  0  0  0  0
 13  1  1  0  0  0  0
 13 14  1  0  0  0  0
 13 15  1  0  0  0  0
  1 16  1  0  0  0  0
 16 17  1  0  0  0  0
 17 18  1  0  0  0  0
 17 19  2  0  0  0  0
 19 20  1  0  0  0  0
 19 21  1  0  0  0  0
 21 22  1  0  0  0  0
 21 23  2  0  0  0  0
 23 24  1  0  0  0  0
 23 25  1  0  0  0  0
 25 16  2  0  0  0  0
 25 26  1  0  0  0  0
M  END
> <ChemID>
103362

> <source_casrn>
771-98-2

> <CAS>
NOCAS_870771

> <SMILES>
C1CCCC=C1c1ccccc1

> <NAME>
1-Phenylcyclohexene

> <preferred_name>


> <iupac>


> <MPID>
22328

> <dsstox_substance_id>
DTXSID10870771

> <Canonical_QSARr>
C1CCCC=C1c1ccccc1

> <InChI_Code_QSARr>
InChI=1S/C12H14/c1-3-7-11(8-4-1)12-9-5-2-6-10-12/h1,3-4,7-9H,2,5-6,10H2

> <InChI Key_QSARr>
WCMSFBRREKZZFL-UHFFFAOYSA-N

> <Salt_Solvent>
?

> <BP>
252.0

$$$$
103366
  -INDIGO-08031720192D

 13 13  0  0  0  0  0  0  0  0999 V2000
   -3.2000   -0.0000    0.0000 N   0  0  0  0  0  0  0  0  0  0  0  0
   -1.6000   -0.0000    0.0000 C   0  0  0  0  0  0  0  0  0  0  0  0
    0.0000   -0.0000    0.0000 C   0  0  0  0  0  0  0  0  0  0  0  0
    0.8001    1.3856    0.0000 C   0  0  0  0  0  0  0  0  0  0  0  0
    0.0000    2.7713    0.0000 F   0  0  0  0  0  0  0  0  0  0  0  0
    2.4001    1.3856    0.0000 C   0  0  0  0  0  0  0  0  0  0  0  0
    3.2000    2.7713    0.0000 F   0  0  0  0  0  0  0  0  0  0  0  0
    3.2000   -0.0000    0.0000 C   0  0  0  0  0  0  0  0  0  0  0  0
    4.8000   -0.0000    0.0000 F   0  0  0  0  0  0  0  0  0  0  0  0
    2.4001   -1.3856    0.0000 C   0  0  0  0  0  0  0  0  0  0  0  0
    3.2000   -2.7713    0.0000 F   0  0  0  0  0  0  0  0  0  0  0  0
    0.8001   -1.3856    0.0000 C   0  0  0  0  0  0  0  0  0  0  0  0
    0.0000   -2.7713    0.0000 F   0  0  0  0  0  0  0  0  0  0  0  0
  1  2  3  0  0  0  0
  2  3  1  0  0  0  0
  3  4  1  0  0  0  0
  4  5  1  0  0  0  0
  4  6  2  0  0  0  0
  6  7  1  0  0  0  0
  6  8  1  0  0  0  0
  8  9  1  0  0  0  0
  8 10  2  0  0  0  0
 10 11  1  0  0  0  0
 10 12  1  0  0  0  0
 12  3  2  0  0  0  0
 12 13  1  0  0  0  0
M  END
> <ChemID>
103366

> <source_casrn>
773-82-0

> <CAS>
773-82-0

> <SMILES>
N#Cc1c(F)c(F)c(F)c(F)c1F

> <NAME>
Benzonitrile, pentafluoro-

> <preferred_name>
Pentafluorobenzonitrile

> <iupac>
2,3,4,5,6-pentafluorobenzonitrile

> <MPID>
22332

> <dsstox_substance_id>
DTXSID9061126

> <Canonical_QSARr>
N#Cc1c(F)c(F)c(F)c(F)c1F

> <InChI_Code_QSARr>
InChI=1S/C7F5N/c8-3-2(1-13)4(9)6(11)7(12)5(3)10

> <InChI Key_QSARr>
YXWJGZQOGXGSSC-UHFFFAOYSA-N

> <Salt_Solvent>
?

> <BP>
162.0

$$$$
103372
  -INDIGO-08031720192D

 30 31  0  0  0  0  0  0  0  0999 V2000
   -0.9479    2.6041    0.0000 O   0  0  0  0  0  0  0  0  0  0  0  0
    0.2779    1.5757    0.0000 C   0  0  0  0  0  0  0  0  0  0  0  0
   -0.0000    0.0000    0.0000 C   0  0  0  0  0  0  0  0  0  0  0  0
   -0.5472   -1.5035    0.0000 H   0  0  0  0  0  0  0  0  0  0  0  0
    1.3856   -0.8000    0.0000 C   0  0  0  0  0  0  0  0  0  0  0  0
    2.7714    0.0000    0.0000 C   0  0  0  0  0  0  0  0  0  0  0  0
    2.7714    1.6000    0.0000 H   0  0  0  0  0  0  0  0  0  0  0  0
    4.1570   -0.8000    0.0000 C   0  0  0  0  0  0  0  0  0  0  0  0
    5.5426    0.0000    0.0000 H   0  0  0  0  0  0  0  0  0  0  0  0
    4.1570   -2.4000    0.0000 C   0  0  0  0  0  0  0  0  0  0  0  0
    5.5426   -3.2000    0.0000 H   0  0  0  0  0  0  0  0  0  0  0  0
    2.7714   -3.2000    0.0000 C   0  0  0  0  0  0  0  0  0  0  0  0
    2.7714   -4.8000    0.0000 H   0  0  0  0  0  0  0  0  0  0  0  0
    1.3856   -2.4000    0.0000 C   0  0  0  0  0  0  0  0  0  0  0  0
   -0.0000   -3.2000    0.0000 H   0  0  0  0  0  0  0  0  0  0  0  0
   -1.5757    0.2779    0.0000 C   0  0  0  0  0  0  0  0  0  0  0  0
   -2.3757    1.6635    0.0000 C   0  0  0  0  0  0  0  0  0  0  0  0
   -1.8284    3.1669    0.0000 H   0  0  0  0  0  0  0  0  0  0  0  0
   -3.9757    1.6635    0.0000 C   0  0  0  0  0  0  0  0  0  0  0  0
   -4.7757    3.0492    0.0000 H   0  0  0  0  0  0  0  0  0  0  0  0
   -4.7757    0.2779    0.0000 C   0  0  0  0  0  0  0  0  0  0  0  0
   -6.3757    0.2779    0.0000 H   0  0  0  0  0  0  0  0  0  0  0  0
   -3.9757   -1.1079    0.0000 C   0  0  0  0  0  0  0  0  0  0  0  0
   -4.7757   -2.4935    0.0000 H   0  0  0  0  0  0  0  0  0  0  0  0
   -2.3757   -1.1079    0.0000 C   0  0  0  0  0  0  0  0  0  0  0  0
   -1.5757   -2.4935    0.0000 H   0  0  0  0  0  0  0  0  0  0  0  0
    1.7813    2.1229    0.0000 C   0  0  0  0  0  0  0  0  0  0  0  0
    2.0592    3.6986    0.0000 H   0  0  0  0  0  0  0  0  0  0  0  0
    3.2849    2.6701    0.0000 H   0  0  0  0  0  0  0  0  0  0  0  0
    0.5558    3.1514    0.0000 H   0  0  0  0  0  0  0  0  0  0  0  0
  1  2  2  0  0  0  0
  2  3  1  0  0  0  0
  3  4  1  0  0  0  0
  3  5  1  0  0  0  0
  5  6  1  0  0  0  0
  6  7  1  0  0  0  0
  6  8  2  0  0  0  0
  8  9  1  0  0  0  0
  8 10  1  0  0  0  0
 10 11  1  0  0  0  0
 10 12  2  0  0  0  0
 12 13  1  0  0  0  0
 12 14  1  0  0  0  0
 14  5  2  0  0  0  0
 14 15  1  0  0  0  0
  3 16  1  0  0  0  0
 16 17  1  0  0  0  0
 17 18  1  0  0  0  0
 17 19  2  0  0  0  0
 19 20  1  0  0  0  0
 19 21  1  0  0  0  0
 21 22  1  0  0  0  0
 21 23  2  0  0  0  0
 23 24  1  0  0  0  0
 23 25  1  0  0  0  0
 25 16  2  0  0  0  0
 25 26  1  0  0  0  0
  2 27  1  0  0  0  0
 27 28  1  0  0  0  0
 27 29  1  0  0  0  0
 27 30  1  0  0  0  0
M  END
> <ChemID>
103372

> <source_casrn>
781-35-1

> <CAS>
781-35-1

> <SMILES>
CC(=O)C(c1ccccc1)c1ccccc1

> <NAME>
2-Propanone, 1,1-diphenyl-

> <preferred_name>
2-Propanone, 1,1-diphenyl-

> <iupac>
1,1-di(phenyl)propan-2-one

> <MPID>
22336

> <dsstox_substance_id>
DTXSID8061137

> <Canonical_QSARr>
CC(=O)C(c1ccccc1)c1ccccc1

> <InChI_Code_QSARr>
InChI=1S/C15H14O/c1-12(16)15(13-8-4-2-5-9-13)14-10-6-3-7-11-14/h2-11,15H,1H3

> <InChI Key_QSARr>
DBNWBEGCONIRGQ-UHFFFAOYSA-N

> <Salt_Solvent>
?

> <BP>
307.0

$$$$
103376
  -INDIGO-08031720192D

 11 10  0  0  0  0  0  0  0  0999 V2000
   -1.3856    0.8000    0.0000 C   0  0  0  0  0  0  0  0  0  0  0  0
    0.0000    0.0000    0.0000 C   0  0  0  0  0  0  0  0  0  0  0  0
   -0.6123   -1.4782    0.0000 H   0  0  0  0  0  0  0  0  0  0  0  0
    1.3856    0.8000    0.0000 C   0  0  0  0  0  0  0  0  0  0  0  0
    2.7713    1.6000    0.0000 H   0  0  0  0  0  0  0  0  0  0  0  0
    2.7713    0.0000    0.0000 H   0  0  0  0  0  0  0  0  0  0  0  0
    1.3856    2.4000    0.0000 H   0  0  0  0  0  0  0  0  0  0  0  0
    0.6123   -1.4782    0.0000 Cl  0  0  0  0  0  0  0  0  0  0  0  0
   -2.7713    1.6000    0.0000 Cl  0  0  0  0  0  0  0  0  0  0  0  0
   -2.7713    0.0000    0.0000 Cl  0  0  0  0  0  0  0  0  0  0  0  0
   -1.3856    2.4000    0.0000 Cl  0  0  0  0  0  0  0  0  0  0  0  0
  1  2  1  0  0  0  0
  2  3  1  0  0  0  0
  2  4  1  0  0  0  0
  4  5  1  0  0  0  0
  4  6  1  0  0  0  0
  4  7  1  0  0  0  0
  2  8  1  0  0  0  0
  1  9  1  0  0  0  0
  1 10  1  0  0  0  0
  1 11  1  0  0  0  0
M  END
> <ChemID>
103376

> <source_casrn>
812-03-3

> <CAS>
NOCAS_870776

> <SMILES>
CC(Cl)C(Cl)(Cl)Cl

> <NAME>
Propane, 1,1,1,2-tetrachloro-

> <preferred_name>


> <iupac>


> <MPID>
22340

> <dsstox_substance_id>
DTXSID10870776

> <Canonical_QSARr>
CC(Cl)C(Cl)(Cl)Cl

> <InChI_Code_QSARr>
InChI=1S/C3H4Cl4/c1-2(4)3(5,6)7/h2H,1H3

> <InChI Key_QSARr>
FEKGWIHDBVDVSM-UHFFFAOYSA-N

> <Salt_Solvent>
?

> <BP>
152.5

$$$$
103380
  -INDIGO-08031720192D

 13 12  0  0  0  0  0  0  0  0999 V2000
    1.6000    0.0000    0.0000 C   0  0  0  0  0  0  0  0  0  0  0  0
    1.8089    1.5863    0.0000 H   0  0  0  0  0  0  0  0  0  0  0  0
    2.8694    0.9740    0.0000 H   0  0  0  0  0  0  0  0  0  0  0  0
    0.0000    0.0000    0.0000 C   0  0  0  0  0  0  0  0  0  0  0  0
    0.0000   -1.6000    0.0000 H   0  0  0  0  0  0  0  0  0  0  0  0
   -1.6000    0.0000    0.0000 C   0  0  0  0  0  0  0  0  0  0  0  0
   -3.2000    0.0000    0.0000 H   0  0  0  0  0  0  0  0  0  0  0  0
   -2.4000    1.3856    0.0000 H   0  0  0  0  0  0  0  0  0  0  0  0
   -2.4000   -1.3856    0.0000 H   0  0  0  0  0  0  0  0  0  0  0  0
    0.0000    1.6000    0.0000 S   0  0  0  0  0  0  0  0  0  0  0  0
   -1.3857    2.4000    0.0000 H   0  0  0  0  0  0  0  0  0  0  0  0
    2.4000   -1.3856    0.0000 S   0  0  0  0  0  0  0  0  0  0  0  0
    4.0000   -1.3856    0.0000 H   0  0  0  0  0  0  0  0  0  0  0  0
  1  2  1  0  0  0  0
  1  3  1  0  0  0  0
  1  4  1  0  0  0  0
  4  5  1  0  0  0  0
  4  6  1  0  0  0  0
  6  7  1  0  0  0  0
  6  8  1  0  0  0  0
  6  9  1  0  0  0  0
  4 10  1  0  0  0  0
 10 11  1  0  0  0  0
  1 12  1  0  0  0  0
 12 13  1  0  0  0  0
M  END
> <ChemID>
103380

> <source_casrn>
814-67-5

> <CAS>
NOCAS_862421

> <SMILES>
CC(S)CS

> <NAME>
1,2-Propanedithiol

> <preferred_name>


> <iupac>


> <MPID>
22344

> <dsstox_substance_id>
DTXSID80862421

> <Canonical_QSARr>
CC(S)CS

> <InChI_Code_QSARr>
InChI=1S/C3H8S2/c1-3(5)2-4/h3-5H,2H2,1H3

> <InChI Key_QSARr>
YGKHJWTVMIMEPQ-UHFFFAOYSA-N

> <Salt_Solvent>
?

> <BP>
152.0

$$$$
103384
  -INDIGO-08031720192D

 28 27  0  0  0  0  0  0  0  0999 V2000
    0.0000    0.0000    0.0000 C   0  0  0  0  0  0  0  0  0  0  0  0
    1.3857   -0.8000    0.0000 C   0  0  0  0  0  0  0  0  0  0  0  0
    2.8891   -0.2528    0.0000 C   0  0  0  0  0  0  0  0  0  0  0  0
    4.4649    0.0251    0.0000 C   0  0  0  0  0  0  0  0  0  0  0  0
    6.0405    0.3029    0.0000 H   0  0  0  0  0  0  0  0  0  0  0  0
    5.4933   -1.2006    0.0000 H   0  0  0  0  0  0  0  0  0  0  0  0
    5.2648    1.4107    0.0000 H   0  0  0  0  0  0  0  0  0  0  0  0
    3.1670   -1.8284    0.0000 C   0  0  0  0  0  0  0  0  0  0  0  0
    3.4448   -3.4042    0.0000 H   0  0  0  0  0  0  0  0  0  0  0  0
    4.6705   -2.3757    0.0000 H   0  0  0  0  0  0  0  0  0  0  0  0
    2.1385   -3.0541    0.0000 H   0  0  0  0  0  0  0  0  0  0  0  0
    2.6113    1.3229    0.0000 C   0  0  0  0  0  0  0  0  0  0  0  0
    3.6397    2.5486    0.0000 H   0  0  0  0  0  0  0  0  0  0  0  0
    4.1870    1.0451    0.0000 H   0  0  0  0  0  0  0  0  0  0  0  0
    1.3857    0.2944    0.0000 H   0  0  0  0  0  0  0  0  0  0  0  0
    1.3857   -2.4000    0.0000 O   0  0  0  0  0  0  0  0  0  0  0  0
   -1.5034    0.5472    0.0000 C   0  0  0  0  0  0  0  0  0  0  0  0
   -3.0070    1.0944    0.0000 H   0  0  0  0  0  0  0  0  0  0  0  0
   -2.7292   -0.4812    0.0000 H   0  0  0  0  0  0  0  0  0  0  0  0
   -1.7813    2.1230    0.0000 H   0  0  0  0  0  0  0  0  0  0  0  0
    0.8000    1.3856    0.0000 C   0  0  0  0  0  0  0  0  0  0  0  0
    1.5999    2.7713    0.0000 H   0  0  0  0  0  0  0  0  0  0  0  0
    0.0000    2.7713    0.0000 H   0  0  0  0  0  0  0  0  0  0  0  0
   -0.8000    1.3856    0.0000 H   0  0  0  0  0  0  0  0  0  0  0  0
   -0.8000   -1.3856    0.0000 C   0  0  0  0  0  0  0  0  0  0  0  0
   -1.5999   -2.7713    0.0000 H   0  0  0  0  0  0  0  0  0  0  0  0
   -2.4000   -1.3856    0.0000 H   0  0  0  0  0  0  0  0  0  0  0  0
    0.0000   -2.7713    0.0000 H   0  0  0  0  0  0  0  0  0  0  0  0
  1  2  1  0  0  0  0
  2  3  1  0  0  0  0
  3  4  1  0  0  0  0
  4  5  1  0  0  0  0
  4  6  1  0  0  0  0
  4  7  1  0  0  0  0
  3  8  1  0  0  0  0
  8  9  1  0  0  0  0
  8 10  1  0  0  0  0
  8 11  1  0  0  0  0
  3 12  1  0  0  0  0
 12 13  1  0  0  0  0
 12 14  1  0  0  0  0
 12 15  1  0  0  0  0
  2 16  2  0  0  0  0
  1 17  1  0  0  0  0
 17 18  1  0  0  0  0
 17 19  1  0  0  0  0
 17 20  1  0  0  0  0
  1 21  1  0  0  0  0
 21 22  1  0  0  0  0
 21 23  1  0  0  0  0
 21 24  1  0  0  0  0
  1 25  1  0  0  0  0
 25 26  1  0  0  0  0
 25 27  1  0  0  0  0
 25 28  1  0  0  0  0
M  END
> <ChemID>
103384

> <source_casrn>
815-24-7

> <CAS>
815-24-7

> <SMILES>
CC(C)(C)C(=O)C(C)(C)C

> <NAME>
3-PENTANONE, 2,2,4,4-TETRAMETHYL-

> <preferred_name>
Di-tert-butyl ketone

> <iupac>
2,2,4,4-Tetramethylpentan-3-one

> <MPID>
22348

> <dsstox_substance_id>
DTXSID1061154

> <Canonical_QSARr>
CC(C)(C)C(=O)C(C)(C)C

> <InChI_Code_QSARr>
InChI=1S/C9H18O/c1-8(2,3)7(10)9(4,5)6/h1-6H3

> <InChI Key_QSARr>
UIQGEWJEWJMQSL-UHFFFAOYSA-N

> <Salt_Solvent>
?

> <BP>
152.0

$$$$
103388
  -INDIGO-08031720192D

 21 20  0  0  0  0  0  0  0  0999 V2000
    4.1569    2.4000    0.0000 O   0  0  0  0  0  0  0  0  0  0  0  0
    4.1569    0.8000    0.0000 C   0  0  0  0  0  0  0  0  0  0  0  0
    5.5426    0.0000    0.0000 O   0  0  0  0  0  0  0  0  0  0  0  0
    6.9283    0.8000    0.0000 C   0  0  0  0  0  0  0  0  0  0  0  0
    7.5404    2.2782    0.0000 H   0  0  0  0  0  0  0  0  0  0  0  0
    6.3159    2.2782    0.0000 H   0  0  0  0  0  0  0  0  0  0  0  0
    8.3138    0.0000    0.0000 C   0  0  0  0  0  0  0  0  0  0  0  0
    9.6995   -0.8000    0.0000 H   0  0  0  0  0  0  0  0  0  0  0  0
    9.6995    0.8000    0.0000 H   0  0  0  0  0  0  0  0  0  0  0  0
    8.3138   -1.6000    0.0000 H   0  0  0  0  0  0  0  0  0  0  0  0
    2.7713    0.0000    0.0000 C   0  0  0  0  0  0  0  0  0  0  0  0
    2.1590   -1.4782    0.0000 H   0  0  0  0  0  0  0  0  0  0  0  0
    3.3835   -1.4782    0.0000 H   0  0  0  0  0  0  0  0  0  0  0  0
    1.3856    0.8000    0.0000 O   0  0  0  0  0  0  0  0  0  0  0  0
   -0.0001    0.0000    0.0000 C   0  0  0  0  0  0  0  0  0  0  0  0
   -0.6122   -1.4782    0.0000 H   0  0  0  0  0  0  0  0  0  0  0  0
    0.6123   -1.4782    0.0000 H   0  0  0  0  0  0  0  0  0  0  0  0
   -1.3856    0.8000    0.0000 C   0  0  0  0  0  0  0  0  0  0  0  0
   -2.7713    1.6000    0.0000 H   0  0  0  0  0  0  0  0  0  0  0  0
   -2.7713    0.0000    0.0000 H   0  0  0  0  0  0  0  0  0  0  0  0
   -1.3856    2.4000    0.0000 H   0  0  0  0  0  0  0  0  0  0  0  0
  1  2  2  0  0  0  0
  2  3  1  0  0  0  0
  3  4  1  0  0  0  0
  4  5  1  0  0  0  0
  4  6  1  0  0  0  0
  4  7  1  0  0  0  0
  7  8  1  0  0  0  0
  7  9  1  0  0  0  0
  7 10  1  0  0  0  0
  2 11  1  0  0  0  0
 11 12  1  0  0  0  0
 11 13  1  0  0  0  0
 11 14  1  0  0  0  0
 14 15  1  0  0  0  0
 15 16  1  0  0  0  0
 15 17  1  0  0  0  0
 15 18  1  0  0  0  0
 18 19  1  0  0  0  0
 18 20  1  0  0  0  0
 18 21  1  0  0  0  0
M  END
> <ChemID>
103388

> <source_casrn>
817-95-8

> <CAS>
817-95-8

> <SMILES>
CCOCC(=O)OCC

> <NAME>
Acetic acid, ethoxy-, ethyl ester

> <preferred_name>
Acetic acid, ethoxy-, ethyl ester

> <iupac>
ethyl 2-ethoxyacetate

> <MPID>
22352

> <dsstox_substance_id>
DTXSID0061161

> <Canonical_QSARr>
CCOCC(=O)OCC

> <InChI_Code_QSARr>
InChI=1S/C6H12O3/c1-3-8-5-6(7)9-4-2/h3-5H2,1-2H3

> <InChI Key_QSARr>
CKSRFHWWBKRUKA-UHFFFAOYSA-N

> <Salt_Solvent>
?

> <BP>
158.0

$$$$
103392
  -INDIGO-08031720192D

  9  8  0  0  0  0  0  0  0  0999 V2000
   -1.3856   -0.8000    0.0000 F   0  0  0  0  0  0  0  0  0  0  0  0
    0.0000    0.0000    0.0000 C   0  0  0  0  0  0  0  0  0  0  0  0
   -1.3856    0.8000    0.0000 H   0  0  0  0  0  0  0  0  0  0  0  0
    0.0000    1.6000    0.0000 H   0  0  0  0  0  0  0  0  0  0  0  0
    1.3857   -0.8000    0.0000 C   0  0  0  0  0  0  0  0  0  0  0  0
    1.3857   -2.4000    0.0000 H   0  0  0  0  0  0  0  0  0  0  0  0
    2.7713    0.0000    0.0000 C   0  0  0  0  0  0  0  0  0  0  0  0
    4.1569   -0.8000    0.0000 H   0  0  0  0  0  0  0  0  0  0  0  0
    2.7713    1.6000    0.0000 H   0  0  0  0  0  0  0  0  0  0  0  0
  1  2  1  0  0  0  0
  2  3  1  0  0  0  0
  2  4  1  0  0  0  0
  2  5  1  0  0  0  0
  5  6  1  0  0  0  0
  5  7  2  0  0  0  0
  7  8  1  0  0  0  0
  7  9  1  0  0  0  0
M  END
> <ChemID>
103392

> <source_casrn>
818-92-8

> <CAS>
818-92-8

> <SMILES>
C=CCF

> <NAME>
1-PROPENE, 3-FLUORO-

> <preferred_name>
3-Fluoropropene

> <iupac>
3-fluoroprop-1-ene

> <MPID>
22356

> <dsstox_substance_id>
DTXSID20231374

> <Canonical_QSARr>
C=CCF

> <InChI_Code_QSARr>
InChI=1S/C3H5F/c1-2-3-4/h2H,1,3H2

> <InChI Key_QSARr>
QCMKXHXKNIOBBC-UHFFFAOYSA-N

> <Salt_Solvent>
?

> <BP>
-3.0

$$$$
103396
  -INDIGO-08031720192D

 16 15  0  0  0  0  0  0  0  0999 V2000
    2.7713    0.0000    0.0000 O   0  0  0  0  0  0  0  0  0  0  0  0
    4.1569    0.8000    0.0000 H   0  0  0  0  0  0  0  0  0  0  0  0
    1.3857    0.8000    0.0000 C   0  0  0  0  0  0  0  0  0  0  0  0
    1.9980    2.2782    0.0000 H   0  0  0  0  0  0  0  0  0  0  0  0
    0.7734    2.2782    0.0000 H   0  0  0  0  0  0  0  0  0  0  0  0
    0.0001    0.0000    0.0000 C   0  0  0  0  0  0  0  0  0  0  0  0
   -0.6122   -1.4782    0.0000 H   0  0  0  0  0  0  0  0  0  0  0  0
    0.6124   -1.4782    0.0000 H   0  0  0  0  0  0  0  0  0  0  0  0
   -1.3857    0.8000    0.0000 C   0  0  0  0  0  0  0  0  0  0  0  0
   -0.7734    2.2782    0.0000 H   0  0  0  0  0  0  0  0  0  0  0  0
   -1.9980    2.2782    0.0000 H   0  0  0  0  0  0  0  0  0  0  0  0
   -2.7713    0.0000    0.0000 C   0  0  0  0  0  0  0  0  0  0  0  0
   -2.7713   -1.6000    0.0000 H   0  0  0  0  0  0  0  0  0  0  0  0
   -4.1569    0.8000    0.0000 C   0  0  0  0  0  0  0  0  0  0  0  0
   -5.5426    0.0000    0.0000 H   0  0  0  0  0  0  0  0  0  0  0  0
   -4.1569    2.4000    0.0000 H   0  0  0  0  0  0  0  0  0  0  0  0
  1  2  1  0  0  0  0
  1  3  1  0  0  0  0
  3  4  1  0  0  0  0
  3  5  1  0  0  0  0
  3  6  1  0  0  0  0
  6  7  1  0  0  0  0
  6  8  1  0  0  0  0
  6  9  1  0  0  0  0
  9 10  1  0  0  0  0
  9 11  1  0  0  0  0
  9 12  1  0  0  0  0
 12 13  1  0  0  0  0
 12 14  2  0  0  0  0
 14 15  1  0  0  0  0
 14 16  1  0  0  0  0
M  END
> <ChemID>
103396

> <source_casrn>
821-09-0

> <CAS>
821-09-0

> <SMILES>
C=CCCCO

> <NAME>
4-PENTEN-1-OL

> <preferred_name>
Pent-4-en-1-ol

> <iupac>
Pent-4-en-1-ol

> <MPID>
22360

> <dsstox_substance_id>
DTXSID30231562

> <Canonical_QSARr>
C=CCCCO

> <InChI_Code_QSARr>
InChI=1S/C5H10O/c1-2-3-4-5-6/h2,6H,1,3-5H2

> <InChI Key_QSARr>
LQAVWYMTUMSFBE-UHFFFAOYSA-N

> <Salt_Solvent>
?

> <BP>
141.0

$$$$
103400
  -INDIGO-08031720192D

 33 32  0  0  0  0  0  0  0  0999 V2000
   -1.3855    0.8000    0.0000 C   0  0  0  0  0  0  0  0  0  0  0  0
   -0.7733    2.2782    0.0000 H   0  0  0  0  0  0  0  0  0  0  0  0
   -1.9980    2.2782    0.0000 H   0  0  0  0  0  0  0  0  0  0  0  0
    0.0001    0.0000    0.0000 C   0  0  0  0  0  0  0  0  0  0  0  0
   -0.6122   -1.4782    0.0000 H   0  0  0  0  0  0  0  0  0  0  0  0
    0.6123   -1.4782    0.0000 H   0  0  0  0  0  0  0  0  0  0  0  0
    1.3856    0.8000    0.0000 C   0  0  0  0  0  0  0  0  0  0  0  0
    1.9979    2.2782    0.0000 H   0  0  0  0  0  0  0  0  0  0  0  0
    0.7734    2.2782    0.0000 H   0  0  0  0  0  0  0  0  0  0  0  0
    2.7712    0.0000    0.0000 C   0  0  0  0  0  0  0  0  0  0  0  0
    2.1590   -1.4782    0.0000 H   0  0  0  0  0  0  0  0  0  0  0  0
    3.3834   -1.4782    0.0000 H   0  0  0  0  0  0  0  0  0  0  0  0
    4.1570    0.8000    0.0000 C   0  0  0  0  0  0  0  0  0  0  0  0
    4.7693    2.2782    0.0000 H   0  0  0  0  0  0  0  0  0  0  0  0
    3.5446    2.2782    0.0000 H   0  0  0  0  0  0  0  0  0  0  0  0
    5.5426    0.0000    0.0000 C   0  0  0  0  0  0  0  0  0  0  0  0
    6.9282   -0.8000    0.0000 H   0  0  0  0  0  0  0  0  0  0  0  0
    6.9282    0.8000    0.0000 H   0  0  0  0  0  0  0  0  0  0  0  0
    5.5426   -1.6000    0.0000 H   0  0  0  0  0  0  0  0  0  0  0  0
   -2.7713    0.0000    0.0000 C   0  0  0  0  0  0  0  0  0  0  0  0
   -3.3836   -1.4782    0.0000 H   0  0  0  0  0  0  0  0  0  0  0  0
   -2.1591   -1.4782    0.0000 H   0  0  0  0  0  0  0  0  0  0  0  0
   -4.1569    0.8000    0.0000 C   0  0  0  0  0  0  0  0  0  0  0  0
   -3.5447    2.2782    0.0000 H   0  0  0  0  0  0  0  0  0  0  0  0
   -4.7692    2.2782    0.0000 H   0  0  0  0  0  0  0  0  0  0  0  0
   -5.5425    0.0000    0.0000 C   0  0  0  0  0  0  0  0  0  0  0  0
   -6.1547   -1.4782    0.0000 H   0  0  0  0  0  0  0  0  0  0  0  0
   -4.9303   -1.4782    0.0000 H   0  0  0  0  0  0  0  0  0  0  0  0
   -6.9281    0.8000    0.0000 C   0  0  0  0  0  0  0  0  0  0  0  0
   -6.9281    2.4000    0.0000 H   0  0  0  0  0  0  0  0  0  0  0  0
   -8.3139    0.0000    0.0000 C   0  0  0  0  0  0  0  0  0  0  0  0
   -9.6995    0.8000    0.0000 H   0  0  0  0  0  0  0  0  0  0  0  0
   -8.3139   -1.6000    0.0000 H   0  0  0  0  0  0  0  0  0  0  0  0
  1  2  1  0  0  0  0
  1  3  1  0  0  0  0
  1  4  1  0  0  0  0
  4  5  1  0  0  0  0
  4  6  1  0  0  0  0
  4  7  1  0  0  0  0
  7  8  1  0  0  0  0
  7  9  1  0  0  0  0
  7 10  1  0  0  0  0
 10 11  1  0  0  0  0
 10 12  1  0  0  0  0
 10 13  1  0  0  0  0
 13 14  1  0  0  0  0
 13 15  1  0  0  0  0
 13 16  1  0  0  0  0
 16 17  1  0  0  0  0
 16 18  1  0  0  0  0
 16 19  1  0  0  0  0
  1 20  1  0  0  0  0
 20 21  1  0  0  0  0
 20 22  1  0  0  0  0
 20 23  1  0  0  0  0
 23 24  1  0  0  0  0
 23 25  1  0  0  0  0
 23 26  1  0  0  0  0
 26 27  1  0  0  0  0
 26 28  1  0  0  0  0
 26 29  1  0  0  0  0
 29 30  1  0  0  0  0
 29 31  2  0  0  0  0
 31 32  1  0  0  0  0
 31 33  1  0  0  0  0
M  END
> <ChemID>
103400

> <source_casrn>
821-95-4

> <CAS>
821-95-4

> <SMILES>
CCCCCCCCCC=C

> <NAME>
1-UNDECENE

> <preferred_name>
1-Undecene

> <iupac>
undec-1-ene

> <MPID>
22364

> <dsstox_substance_id>
DTXSID5061168

> <Canonical_QSARr>
CCCCCCCCCC=C

> <InChI_Code_QSARr>
InChI=1S/C11H22/c1-3-5-7-9-11-10-8-6-4-2/h3H,1,4-11H2,2H3

> <InChI Key_QSARr>
DCTOHCCUXLBQMS-UHFFFAOYSA-N

> <Salt_Solvent>
?

> <BP>
192.7

$$$$
103406
  -INDIGO-08031720192D

 12 12  0  0  0  0  0  0  0  0999 V2000
    1.5912    0.1672    0.0000 C   0  0  0  0  0  0  0  0  0  0  0  0
    3.1825    0.3345    0.0000 H   0  0  0  0  0  0  0  0  0  0  0  0
    2.5316   -1.1271    0.0000 H   0  0  0  0  0  0  0  0  0  0  0  0
    2.2420    1.6289    0.0000 H   0  0  0  0  0  0  0  0  0  0  0  0
    0.0001    0.0000    0.0000 C   0  0  0  0  0  0  0  0  0  0  0  0
   -1.0706    1.1891    0.0000 C   0  0  0  0  0  0  0  0  0  0  0  0
   -0.7380    2.7541    0.0000 H   0  0  0  0  0  0  0  0  0  0  0  0
   -2.5323    0.5383    0.0000 N   0  0  0  0  0  0  0  0  0  0  0  0
   -3.9179    1.3382    0.0000 H   0  0  0  0  0  0  0  0  0  0  0  0
   -2.3650   -1.0530    0.0000 C   0  0  0  0  0  0  0  0  0  0  0  0
   -3.5541   -2.1236    0.0000 H   0  0  0  0  0  0  0  0  0  0  0  0
   -0.8000   -1.3856    0.0000 N   0  0  0  0  0  0  0  0  0  0  0  0
  1  2  1  0  0  0  0
  1  3  1  0  0  0  0
  1  4  1  0  0  0  0
  1  5  1  0  0  0  0
  5  6  2  0  0  0  0
  6  7  1  0  0  0  0
  6  8  1  0  0  0  0
  8  9  1  0  0  0  0
  8 10  1  0  0  0  0
 10 11  1  0  0  0  0
 10 12  2  0  0  0  0
 12  5  1  0  0  0  0
M  END
> <ChemID>
103406

> <source_casrn>
822-36-6

> <CAS>
822-36-6

> <SMILES>
Cc1c[nH]c[n]1

> <NAME>
1H-IMIDAZOLE, 4-METHYL-

> <preferred_name>
4-Methylimidazole

> <iupac>
4-methyl-1H-imidazole

> <MPID>
22370

> <dsstox_substance_id>
DTXSID9025617

> <Canonical_QSARr>
Cc1c[nH]c[n]1

> <InChI_Code_QSARr>
InChI=1S/C4H6N2/c1-4-2-5-3-6-4/h2-3H,1H3,(H,5,6)

> <InChI Key_QSARr>
XLSZMDLNRCVEIJ-UHFFFAOYSA-N

> <Salt_Solvent>
?

> <BP>
263.0

$$$$
103411
  -INDIGO-08031720192D

 11 11  0  0  0  0  0  0  0  0999 V2000
   -1.7322    1.9239    0.0000 S   0  0  0  0  0  0  0  0  0  0  0  0
   -0.1673    1.5912    0.0000 C   0  0  0  0  0  0  0  0  0  0  0  0
    1.0218    2.6618    0.0000 H   0  0  0  0  0  0  0  0  0  0  0  0
    0.0000   -0.0000    0.0000 C   0  0  0  0  0  0  0  0  0  0  0  0
    1.3856   -0.8000    0.0000 N   0  0  0  0  0  0  0  0  0  0  0  0
    2.7713   -0.0000    0.0000 O   0  0  0  0  0  0  0  0  0  0  0  0
    1.3856   -2.4000    0.0000 O   0  0  0  0  0  0  0  0  0  0  0  0
   -1.4617   -0.6508    0.0000 C   0  0  0  0  0  0  0  0  0  0  0  0
   -1.7943   -2.2158    0.0000 H   0  0  0  0  0  0  0  0  0  0  0  0
   -2.5322    0.5382    0.0000 C   0  0  0  0  0  0  0  0  0  0  0  0
   -4.1235    0.3710    0.0000 H   0  0  0  0  0  0  0  0  0  0  0  0
  1  2  1  0  0  0  0
  2  3  1  0  0  0  0
  2  4  2  0  0  0  0
  4  5  1  0  0  0  0
  5  6  1  0  0  0  0
  5  7  2  0  0  0  0
  4  8  1  0  0  0  0
  8  9  1  0  0  0  0
  8 10  2  0  0  0  0
 10  1  1  0  0  0  0
 10 11  1  0  0  0  0
M  CHG  2   5   1   6  -1
M  END
> <ChemID>
103411

> <source_casrn>
822-84-4

> <CAS>
822-84-4

> <SMILES>
[O-][N+](=O)c1c[s]cc1

> <NAME>
3-NITROTHIOPHENE

> <preferred_name>
Thiophene, 3-nitro-

> <iupac>
3-Nitrothiophene

> <MPID>
22374

> <dsstox_substance_id>
DTXSID10231621

> <Canonical_QSARr>
[O-][N+](=O)c1c[s]cc1

> <InChI_Code_QSARr>
InChI=1S/C4H3NO2S/c6-5(7)4-1-2-8-3-4/h1-3H

> <InChI Key_QSARr>
SIPCFXFCVTUAID-UHFFFAOYSA-N

> <Salt_Solvent>
?

> <BP>
225.0

$$$$
103415
  -INDIGO-08031720192D

 22 23  0  0  0  0  0  0  0  0999 V2000
   -0.0000    0.0000    0.0000 C   0  0  0  0  0  0  0  0  0  0  0  0
    1.6000    0.0000    0.0000 C   0  0  0  0  0  0  0  0  0  0  0  0
    2.4001    1.3856    0.0000 C   0  0  0  0  0  0  0  0  0  0  0  0
    3.2000    2.7713    0.0000 H   0  0  0  0  0  0  0  0  0  0  0  0
    4.0000    1.3856    0.0000 H   0  0  0  0  0  0  0  0  0  0  0  0
    1.6000    2.7713    0.0000 H   0  0  0  0  0  0  0  0  0  0  0  0
    2.4001   -1.3856    0.0000 C   0  0  0  0  0  0  0  0  0  0  0  0
    4.0000   -1.3856    0.0000 H   0  0  0  0  0  0  0  0  0  0  0  0
    1.6000   -2.7713    0.0000 C   0  0  0  0  0  0  0  0  0  0  0  0
    2.4001   -4.1569    0.0000 H   0  0  0  0  0  0  0  0  0  0  0  0
   -0.0000   -2.7713    0.0000 C   0  0  0  0  0  0  0  0  0  0  0  0
   -0.7999   -4.1569    0.0000 H   0  0  0  0  0  0  0  0  0  0  0  0
   -0.7999   -1.3856    0.0000 C   0  0  0  0  0  0  0  0  0  0  0  0
   -2.3650   -1.0529    0.0000 C   0  0  0  0  0  0  0  0  0  0  0  0
   -2.5323   -2.6442    0.0000 H   0  0  0  0  0  0  0  0  0  0  0  0
   -3.9650   -1.0529    0.0000 H   0  0  0  0  0  0  0  0  0  0  0  0
   -2.5322    0.5382    0.0000 C   0  0  0  0  0  0  0  0  0  0  0  0
   -4.0973    0.2056    0.0000 H   0  0  0  0  0  0  0  0  0  0  0  0
   -3.0267    2.0599    0.0000 H   0  0  0  0  0  0  0  0  0  0  0  0
   -1.0707    1.1890    0.0000 C   0  0  0  0  0  0  0  0  0  0  0  0
   -1.8706    2.5746    0.0000 H   0  0  0  0  0  0  0  0  0  0  0  0
    0.2238    2.1295    0.0000 H   0  0  0  0  0  0  0  0  0  0  0  0
  1  2  1  0  0  0  0
  2  3  1  0  0  0  0
  3  4  1  0  0  0  0
  3  5  1  0  0  0  0
  3  6  1  0  0  0  0
  2  7  2  0  0  0  0
  7  8  1  0  0  0  0
  7  9  1  0  0  0  0
  9 10  1  0  0  0  0
  9 11  2  0  0  0  0
 11 12  1  0  0  0  0
 11 13  1  0  0  0  0
 13  1  2  0  0  0  0
 13 14  1  0  0  0  0
 14 15  1  0  0  0  0
 14 16  1  0  0  0  0
 14 17  1  0  0  0  0
 17 18  1  0  0  0  0
 17 19  1  0  0  0  0
 17 20  1  0  0  0  0
 20  1  1  0  0  0  0
 20 21  1  0  0  0  0
 20 22  1  0  0  0  0
M  END
> <ChemID>
103415

> <source_casrn>
824-22-6

> <CAS>
824-22-6

> <SMILES>
Cc1cccc2CCCc21

> <NAME>
1H-INDENE, 2,3-DIHYDRO-4-METHYL-

> <preferred_name>
4-Methylindan

> <iupac>
4-methyl-2,3-dihydro-1H-indene

> <MPID>
22378

> <dsstox_substance_id>
DTXSID7073931

> <Canonical_QSARr>
Cc1cccc2CCCc21

> <InChI_Code_QSARr>
InChI=1S/C10H12/c1-8-4-2-5-9-6-3-7-10(8)9/h2,4-5H,3,6-7H2,1H3

> <InChI Key_QSARr>
LNNSODHYZXCEJP-UHFFFAOYSA-N

> <Salt_Solvent>
?

> <BP>
205.3

$$$$
103419
  -INDIGO-08031720192D

 19 19  0  0  0  0  0  0  0  0999 V2000
    2.4000    1.3856    0.0000 Cl  0  0  0  0  0  0  0  0  0  0  0  0
    1.6000   -0.0000    0.0000 C   0  0  0  0  0  0  0  0  0  0  0  0
    3.2000   -0.0000    0.0000 H   0  0  0  0  0  0  0  0  0  0  0  0
    2.4000   -1.3856    0.0000 H   0  0  0  0  0  0  0  0  0  0  0  0
   -0.0001   -0.0000    0.0000 C   0  0  0  0  0  0  0  0  0  0  0  0
   -0.8000    1.3856    0.0000 C   0  0  0  0  0  0  0  0  0  0  0  0
   -0.0001    2.7713    0.0000 H   0  0  0  0  0  0  0  0  0  0  0  0
   -2.4000    1.3856    0.0000 C   0  0  0  0  0  0  0  0  0  0  0  0
   -3.2000    2.7713    0.0000 H   0  0  0  0  0  0  0  0  0  0  0  0
   -3.2000   -0.0000    0.0000 C   0  0  0  0  0  0  0  0  0  0  0  0
   -4.8001   -0.0000    0.0000 O   0  0  0  0  0  0  0  0  0  0  0  0
   -5.6000    1.3856    0.0000 C   0  0  0  0  0  0  0  0  0  0  0  0
   -7.2000    1.3856    0.0000 H   0  0  0  0  0  0  0  0  0  0  0  0
   -6.4000    2.7713    0.0000 H   0  0  0  0  0  0  0  0  0  0  0  0
   -6.4000   -0.0000    0.0000 H   0  0  0  0  0  0  0  0  0  0  0  0
   -2.4000   -1.3856    0.0000 C   0  0  0  0  0  0  0  0  0  0  0  0
   -3.2000   -2.7713    0.0000 H   0  0  0  0  0  0  0  0  0  0  0  0
   -0.8000   -1.3856    0.0000 C   0  0  0  0  0  0  0  0  0  0  0  0
   -0.0001   -2.7713    0.0000 H   0  0  0  0  0  0  0  0  0  0  0  0
  1  2  1  0  0  0  0
  2  3  1  0  0  0  0
  2  4  1  0  0  0  0
  2  5  1  0  0  0  0
  5  6  1  0  0  0  0
  6  7  1  0  0  0  0
  6  8  2  0  0  0  0
  8  9  1  0  0  0  0
  8 10  1  0  0  0  0
 10 11  1  0  0  0  0
 11 12  1  0  0  0  0
 12 13  1  0  0  0  0
 12 14  1  0  0  0  0
 12 15  1  0  0  0  0
 10 16  2  0  0  0  0
 16 17  1  0  0  0  0
 16 18  1  0  0  0  0
 18  5  2  0  0  0  0
 18 19  1  0  0  0  0
M  END
> <ChemID>
103419

> <source_casrn>
824-94-2

> <CAS>
824-94-2

> <SMILES>
COc1ccc(CCl)cc1

> <NAME>
4-Methoxybenzyl chloride

> <preferred_name>
4-Methyloxybenzyl chloride

> <iupac>
1-(Chloromethyl)-4-methoxybenzene

> <MPID>
22382

> <dsstox_substance_id>
DTXSID20231718

> <Canonical_QSARr>
COc1ccc(CCl)cc1

> <InChI_Code_QSARr>
InChI=1S/C8H9ClO/c1-10-8-4-2-7(6-9)3-5-8/h2-5H,6H2,1H3

> <InChI Key_QSARr>
MOHYOXXOKFQHDC-UHFFFAOYSA-N

> <Salt_Solvent>
?

> <BP>
262.5

$$$$
103423
  -INDIGO-08031720192D

 21 22  0  0  0  0  0  0  0  0999 V2000
   -0.0001    1.6000    0.0000 C   0  0  0  0  0  0  0  0  0  0  0  0
    1.3857    2.4000    0.0000 N   0  0  0  0  0  0  0  0  0  0  0  0
    2.7713    1.6000    0.0000 C   0  0  0  0  0  0  0  0  0  0  0  0
    4.1569    2.4000    0.0000 C   0  0  0  0  0  0  0  0  0  0  0  0
    5.5426    3.2000    0.0000 H   0  0  0  0  0  0  0  0  0  0  0  0
    4.1569    4.0000    0.0000 H   0  0  0  0  0  0  0  0  0  0  0  0
    5.5426    1.6000    0.0000 H   0  0  0  0  0  0  0  0  0  0  0  0
    2.7713    0.0000    0.0000 C   0  0  0  0  0  0  0  0  0  0  0  0
    4.1569   -0.8000    0.0000 H   0  0  0  0  0  0  0  0  0  0  0  0
    1.3857   -0.8000    0.0000 C   0  0  0  0  0  0  0  0  0  0  0  0
    1.3857   -2.4000    0.0000 H   0  0  0  0  0  0  0  0  0  0  0  0
   -0.0001    0.0000    0.0000 C   0  0  0  0  0  0  0  0  0  0  0  0
   -1.3857   -0.8000    0.0000 C   0  0  0  0  0  0  0  0  0  0  0  0
   -1.3857   -2.4000    0.0000 H   0  0  0  0  0  0  0  0  0  0  0  0
   -2.7713    0.0000    0.0000 C   0  0  0  0  0  0  0  0  0  0  0  0
   -4.1569   -0.8000    0.0000 H   0  0  0  0  0  0  0  0  0  0  0  0
   -2.7713    1.6000    0.0000 C   0  0  0  0  0  0  0  0  0  0  0  0
   -4.1569    2.4000    0.0000 H   0  0  0  0  0  0  0  0  0  0  0  0
   -1.3857    2.4000    0.0000 C   0  0  0  0  0  0  0  0  0  0  0  0
   -1.3857    4.0000    0.0000 O   0  0  0  0  0  0  0  0  0  0  0  0
   -2.7713    4.8000    0.0000 H   0  0  0  0  0  0  0  0  0  0  0  0
  1  2  1  0  0  0  0
  2  3  2  0  0  0  0
  3  4  1  0  0  0  0
  4  5  1  0  0  0  0
  4  6  1  0  0  0  0
  4  7  1  0  0  0  0
  3  8  1  0  0  0  0
  8  9  1  0  0  0  0
  8 10  2  0  0  0  0
 10 11  1  0  0  0  0
 10 12  1  0  0  0  0
 12  1  1  0  0  0  0
 12 13  2  0  0  0  0
 13 14  1  0  0  0  0
 13 15  1  0  0  0  0
 15 16  1  0  0  0  0
 15 17  2  0  0  0  0
 17 18  1  0  0  0  0
 17 19  1  0  0  0  0
 19  1  2  0  0  0  0
 19 20  1  0  0  0  0
 20 21  1  0  0  0  0
M  END
> <ChemID>
103423

> <source_casrn>
826-81-3

> <CAS>
826-81-3

> <SMILES>
Cc1ccc2cccc(O)c2[n]1

> <NAME>
2-METHYL 8-QUINOLONOL

> <preferred_name>
8-Quinolinol, 2-methyl-

> <iupac>
2-Methylquinolin-8-ol

> <MPID>
22386

> <dsstox_substance_id>
DTXSID3061184

> <Canonical_QSARr>
Cc1ccc2cccc(O)c2[n]1

> <InChI_Code_QSARr>
InChI=1S/C10H9NO/c1-7-5-6-8-3-2-4-9(12)10(8)11-7/h2-6,12H,1H3

> <InChI Key_QSARr>
NBYLBWHHTUWMER-UHFFFAOYSA-N

> <Salt_Solvent>
?

> <BP>
267.0

$$$$
103427
  -INDIGO-08031720192D

 28 29  0  0  0  0  0  0  0  0999 V2000
   -1.5757   -0.2779    0.0000 C   0  0  0  0  0  0  0  0  0  0  0  0
   -0.0000   -0.0000    0.0000 C   0  0  0  0  0  0  0  0  0  0  0  0
   -0.5472   -1.5035    0.0000 H   0  0  0  0  0  0  0  0  0  0  0  0
   -0.0000    1.6000    0.0000 C   0  0  0  0  0  0  0  0  0  0  0  0
   -1.5757    1.3221    0.0000 H   0  0  0  0  0  0  0  0  0  0  0  0
   -0.5472    3.1036    0.0000 H   0  0  0  0  0  0  0  0  0  0  0  0
    1.3857    2.4000    0.0000 C   0  0  0  0  0  0  0  0  0  0  0  0
    0.3572    3.6257    0.0000 H   0  0  0  0  0  0  0  0  0  0  0  0
    2.4141    3.6257    0.0000 H   0  0  0  0  0  0  0  0  0  0  0  0
    2.7713    1.6000    0.0000 C   0  0  0  0  0  0  0  0  0  0  0  0
    3.3185    3.1036    0.0000 H   0  0  0  0  0  0  0  0  0  0  0  0
    4.3470    1.3221    0.0000 H   0  0  0  0  0  0  0  0  0  0  0  0
    2.7713   -0.0000    0.0000 C   0  0  0  0  0  0  0  0  0  0  0  0
    4.3470    0.2778    0.0000 H   0  0  0  0  0  0  0  0  0  0  0  0
    3.3185   -1.5035    0.0000 H   0  0  0  0  0  0  0  0  0  0  0  0
    1.3857   -0.8000    0.0000 C   0  0  0  0  0  0  0  0  0  0  0  0
    2.4141   -2.0256    0.0000 H   0  0  0  0  0  0  0  0  0  0  0  0
    0.3572   -2.0256    0.0000 H   0  0  0  0  0  0  0  0  0  0  0  0
   -2.6042    0.9479    0.0000 C   0  0  0  0  0  0  0  0  0  0  0  0
   -2.0568    2.4514    0.0000 H   0  0  0  0  0  0  0  0  0  0  0  0
   -4.1798    0.6700    0.0000 C   0  0  0  0  0  0  0  0  0  0  0  0
   -5.2083    1.8957    0.0000 H   0  0  0  0  0  0  0  0  0  0  0  0
   -4.7271   -0.8336    0.0000 C   0  0  0  0  0  0  0  0  0  0  0  0
   -6.3028   -1.1114    0.0000 H   0  0  0  0  0  0  0  0  0  0  0  0
   -3.6986   -2.0592    0.0000 C   0  0  0  0  0  0  0  0  0  0  0  0
   -4.2458   -3.5627    0.0000 H   0  0  0  0  0  0  0  0  0  0  0  0
   -2.1230   -1.7814    0.0000 C   0  0  0  0  0  0  0  0  0  0  0  0
   -1.0945   -3.0070    0.0000 H   0  0  0  0  0  0  0  0  0  0  0  0
  1  2  1  0  0  0  0
  2  3  1  0  0  0  0
  2  4  1  0  0  0  0
  4  5  1  0  0  0  0
  4  6  1  0  0  0  0
  4  7  1  0  0  0  0
  7  8  1  0  0  0  0
  7  9  1  0  0  0  0
  7 10  1  0  0  0  0
 10 11  1  0  0  0  0
 10 12  1  0  0  0  0
 10 13  1  0  0  0  0
 13 14  1  0  0  0  0
 13 15  1  0  0  0  0
 13 16  1  0  0  0  0
 16  2  1  0  0  0  0
 16 17  1  0  0  0  0
 16 18  1  0  0  0  0
  1 19  1  0  0  0  0
 19 20  1  0  0  0  0
 19 21  2  0  0  0  0
 21 22  1  0  0  0  0
 21 23  1  0  0  0  0
 23 24  1  0  0  0  0
 23 25  2  0  0  0  0
 25 26  1  0  0  0  0
 25 27  1  0  0  0  0
 27  1  2  0  0  0  0
 27 28  1  0  0  0  0
M  END
> <ChemID>
103427

> <source_casrn>
827-52-1

> <CAS>
827-52-1

> <SMILES>
C1CCCCC1c1ccccc1

> <NAME>
PHENYL CYCLOHEXANE

> <preferred_name>
Cyclohexylbenzene

> <iupac>
Cyclohexylbenzene

> <MPID>
22390

> <dsstox_substance_id>
DTXSID3061188

> <Canonical_QSARr>
C1CCCCC1c1ccccc1

> <InChI_Code_QSARr>
InChI=1S/C12H16/c1-3-7-11(8-4-1)12-9-5-2-6-10-12/h1,3-4,7-8,12H,2,5-6,9-10H2

> <InChI Key_QSARr>
IGARGHRYKHJQSM-UHFFFAOYSA-N

> <Salt_Solvent>
?

> <BP>
240.1

$$$$
103431
  -INDIGO-08031720192D

 32 32  0  0  0  0  0  0  0  0999 V2000
    0.8001    1.3857    0.0000 C   0  0  0  0  0  0  0  0  0  0  0  0
    1.5999    2.7713    0.0000 H   0  0  0  0  0  0  0  0  0  0  0  0
    2.4000    1.3857    0.0000 H   0  0  0  0  0  0  0  0  0  0  0  0
    0.0000    2.7713    0.0000 H   0  0  0  0  0  0  0  0  0  0  0  0
    0.0000   -0.0000    0.0000 C   0  0  0  0  0  0  0  0  0  0  0  0
   -0.8001   -1.3856    0.0000 H   0  0  0  0  0  0  0  0  0  0  0  0
    1.3857   -0.8000    0.0000 C   0  0  0  0  0  0  0  0  0  0  0  0
    2.7713   -1.6000    0.0000 H   0  0  0  0  0  0  0  0  0  0  0  0
    2.7713   -0.0000    0.0000 H   0  0  0  0  0  0  0  0  0  0  0  0
    1.3857   -2.4000    0.0000 H   0  0  0  0  0  0  0  0  0  0  0  0
   -1.3855    0.8000    0.0000 N   0  0  0  0  0  0  0  0  0  0  0  0
   -1.3855    2.4000    0.0000 H   0  0  0  0  0  0  0  0  0  0  0  0
   -2.7713   -0.0000    0.0000 C   0  0  0  0  0  0  0  0  0  0  0  0
   -4.1568    0.8000    0.0000 N   0  0  0  0  0  0  0  0  0  0  0  0
   -5.5426   -0.0000    0.0000 C   0  0  0  0  0  0  0  0  0  0  0  0
   -6.9281    0.8000    0.0000 N   0  0  0  0  0  0  0  0  0  0  0  0
   -6.9281    2.4000    0.0000 H   0  0  0  0  0  0  0  0  0  0  0  0
   -8.3138   -0.0000    0.0000 C   0  0  0  0  0  0  0  0  0  0  0  0
   -7.7015   -1.4781    0.0000 H   0  0  0  0  0  0  0  0  0  0  0  0
   -8.9262   -1.4781    0.0000 H   0  0  0  0  0  0  0  0  0  0  0  0
   -9.6994    0.8000    0.0000 C   0  0  0  0  0  0  0  0  0  0  0  0
  -11.0851    1.5999    0.0000 H   0  0  0  0  0  0  0  0  0  0  0  0
  -11.0851   -0.0000    0.0000 H   0  0  0  0  0  0  0  0  0  0  0  0
   -9.6994    2.4000    0.0000 H   0  0  0  0  0  0  0  0  0  0  0  0
   -5.5426   -1.6000    0.0000 N   0  0  0  0  0  0  0  0  0  0  0  0
   -4.1568   -2.4000    0.0000 C   0  0  0  0  0  0  0  0  0  0  0  0
   -4.1568   -3.9999    0.0000 S   0  0  0  0  0  0  0  0  0  0  0  0
   -5.5426   -4.8000    0.0000 C   0  0  0  0  0  0  0  0  0  0  0  0
   -5.5426   -6.4000    0.0000 H   0  0  0  0  0  0  0  0  0  0  0  0
   -6.9281   -5.5999    0.0000 H   0  0  0  0  0  0  0  0  0  0  0  0
   -6.9281   -3.9999    0.0000 H   0  0  0  0  0  0  0  0  0  0  0  0
   -2.7713   -1.6000    0.0000 N   0  0  0  0  0  0  0  0  0  0  0  0
  1  2  1  0  0  0  0
  1  3  1  0  0  0  0
  1  4  1  0  0  0  0
  1  5  1  0  0  0  0
  5  6  1  0  0  0  0
  5  7  1  0  0  0  0
  7  8  1  0  0  0  0
  7  9  1  0  0  0  0
  7 10  1  0  0  0  0
  5 11  1  0  0  0  0
 11 12  1  0  0  0  0
 11 13  1  0  0  0  0
 13 14  1  0  0  0  0
 14 15  2  0  0  0  0
 15 16  1  0  0  0  0
 16 17  1  0  0  0  0
 16 18  1  0  0  0  0
 18 19  1  0  0  0  0
 18 20  1  0  0  0  0
 18 21  1  0  0  0  0
 21 22  1  0  0  0  0
 21 23  1  0  0  0  0
 21 24  1  0  0  0  0
 15 25  1  0  0  0  0
 25 26  2  0  0  0  0
 26 27  1  0  0  0  0
 27 28  1  0  0  0  0
 28 29  1  0  0  0  0
 28 30  1  0  0  0  0
 28 31  1  0  0  0  0
 26 32  1  0  0  0  0
 32 13  2  0  0  0  0
M  END
> <ChemID>
103431

> <source_casrn>
834-12-8

> <CAS>
834-12-8

> <SMILES>
CCNc1[n]c(NC(C)C)[n]c([n]1)SC

> <NAME>
AMETRYNE

> <preferred_name>
Ametryn

> <iupac>
N-ethyl-6-(methylsulfanyl)-N'-(propan-2-yl)-1,3,5-triazine-2,4-diamine

> <MPID>
22394

> <dsstox_substance_id>
DTXSID1023869

> <Canonical_QSARr>
CCNc1[n]c(NC(C)C)[n]c([n]1)SC

> <InChI_Code_QSARr>
InChI=1S/C9H17N5S/c1-5-10-7-12-8(11-6(2)3)14-9(13-7)15-4/h6H,5H2,1-4H3,(H2,10,11,12,13,14)

> <InChI Key_QSARr>
RQVYBGPQFYCBGX-UHFFFAOYSA-N

> <Salt_Solvent>
?

> <BP>
345.0

$$$$
103435
  -INDIGO-08031720192D

 20 19  0  0  0  0  0  0  0  0999 V2000
    0.0001   -1.6000    0.0000 F   0  0  0  0  0  0  0  0  0  0  0  0
    0.0001   -0.0000    0.0000 C   0  0  0  0  0  0  0  0  0  0  0  0
    1.5757   -0.2779    0.0000 C   0  0  0  0  0  0  0  0  0  0  0  0
    2.9950    0.4610    0.0000 F   0  0  0  0  0  0  0  0  0  0  0  0
    2.0569    1.2481    0.0000 F   0  0  0  0  0  0  0  0  0  0  0  0
    2.1229   -1.7814    0.0000 C   0  0  0  0  0  0  0  0  0  0  0  0
    2.6701   -3.2849    0.0000 F   0  0  0  0  0  0  0  0  0  0  0  0
    3.6986   -2.0592    0.0000 F   0  0  0  0  0  0  0  0  0  0  0  0
    1.0945   -3.0070    0.0000 F   0  0  0  0  0  0  0  0  0  0  0  0
   -1.5757   -0.2779    0.0000 C   0  0  0  0  0  0  0  0  0  0  0  0
   -2.0569    1.2481    0.0000 F   0  0  0  0  0  0  0  0  0  0  0  0
   -2.9950    0.4610    0.0000 F   0  0  0  0  0  0  0  0  0  0  0  0
   -2.1229   -1.7814    0.0000 C   0  0  0  0  0  0  0  0  0  0  0  0
   -2.6701   -3.2849    0.0000 F   0  0  0  0  0  0  0  0  0  0  0  0
   -3.6986   -2.0592    0.0000 F   0  0  0  0  0  0  0  0  0  0  0  0
   -1.0945   -3.0070    0.0000 F   0  0  0  0  0  0  0  0  0  0  0  0
    0.0001    1.6000    0.0000 C   0  0  0  0  0  0  0  0  0  0  0  0
    0.0001    3.2000    0.0000 F   0  0  0  0  0  0  0  0  0  0  0  0
   -1.3856    2.4000    0.0000 F   0  0  0  0  0  0  0  0  0  0  0  0
    1.3856    2.4000    0.0000 F   0  0  0  0  0  0  0  0  0  0  0  0
  1  2  1  0  0  0  0
  2  3  1  0  0  0  0
  3  4  1  0  0  0  0
  3  5  1  0  0  0  0
  3  6  1  0  0  0  0
  6  7  1  0  0  0  0
  6  8  1  0  0  0  0
  6  9  1  0  0  0  0
  2 10  1  0  0  0  0
 10 11  1  0  0  0  0
 10 12  1  0  0  0  0
 10 13  1  0  0  0  0
 13 14  1  0  0  0  0
 13 15  1  0  0  0  0
 13 16  1  0  0  0  0
  2 17  1  0  0  0  0
 17 18  1  0  0  0  0
 17 19  1  0  0  0  0
 17 20  1  0  0  0  0
M  END
> <ChemID>
103435

> <source_casrn>
865-71-4

> <CAS>
865-71-4

> <SMILES>
FC(C(F)(F)C(F)(F)F)(C(F)(F)C(F)(F)F)C(F)(F)F

> <NAME>
Undecafluoro-3-trifluoromethyl-pentane

> <preferred_name>
1,1,1,2,2,3,4,4,5,5,5-Undecafluoro-3-(trifluoromethyl)pentane

> <iupac>
1,1,1,2,2,3,4,4,5,5,5-Undecafluoro-3-(trifluoromethyl)pentane

> <MPID>
22398

> <dsstox_substance_id>
DTXSID50235603

> <Canonical_QSARr>
FC(C(F)(F)C(F)(F)F)(C(F)(F)C(F)(F)F)C(F)(F)F

> <InChI_Code_QSARr>
InChI=1S/C6F14/c7-1(4(12,13)14,2(8,9)5(15,16)17)3(10,11)6(18,19)20

> <InChI Key_QSARr>
GXSFAIDPYIEIEF-UHFFFAOYSA-N

> <Salt_Solvent>
?

> <BP>
58.4

$$$$
103439
  -INDIGO-08031720192D

 11 10  0  0  0  0  0  0  0  0999 V2000
    2.7713    0.0000    0.0000 C   0  0  0  0  0  0  0  0  0  0  0  0
    4.1569   -0.8000    0.0000 H   0  0  0  0  0  0  0  0  0  0  0  0
    2.7713    1.6000    0.0000 H   0  0  0  0  0  0  0  0  0  0  0  0
    1.3856   -0.8000    0.0000 C   0  0  0  0  0  0  0  0  0  0  0  0
    1.3856   -2.4000    0.0000 H   0  0  0  0  0  0  0  0  0  0  0  0
    0.0001    0.0000    0.0000 C   0  0  0  0  0  0  0  0  0  0  0  0
    0.6123    1.4782    0.0000 H   0  0  0  0  0  0  0  0  0  0  0  0
   -0.6123    1.4782    0.0000 H   0  0  0  0  0  0  0  0  0  0  0  0
   -1.3856   -0.8000    0.0000 C   0  0  0  0  0  0  0  0  0  0  0  0
   -2.7712   -1.6000    0.0000 C   0  0  0  0  0  0  0  0  0  0  0  0
   -4.1569   -2.4000    0.0000 H   0  0  0  0  0  0  0  0  0  0  0  0
  1  2  1  0  0  0  0
  1  3  1  0  0  0  0
  1  4  2  0  0  0  0
  4  5  1  0  0  0  0
  4  6  1  0  0  0  0
  6  7  1  0  0  0  0
  6  8  1  0  0  0  0
  6  9  1  0  0  0  0
  9 10  3  0  0  0  0
 10 11  1  0  0  0  0
M  END
> <ChemID>
103439

> <source_casrn>
871-28-3

> <CAS>
NOCAS_870788

> <SMILES>
C=CCC#C

> <NAME>
1-PENTEN-4-YNE

> <preferred_name>


> <iupac>


> <MPID>
22402

> <dsstox_substance_id>
DTXSID80870788

> <Canonical_QSARr>
C=CCC#C

> <InChI_Code_QSARr>
InChI=1S/C5H6/c1-3-5-4-2/h1,4H,2,5H2

> <InChI Key_QSARr>
LKOBTUTURSPCEE-UHFFFAOYSA-N

> <Salt_Solvent>
?

> <BP>
42.5

$$$$
103443
  -INDIGO-08031720192D

  9  9  0  0  0  0  0  0  0  0999 V2000
    0.0000   -0.0000    0.0000 C   0  0  0  0  0  0  0  0  0  0  0  0
    0.9405    1.2944    0.0000 Br  0  0  0  0  0  0  0  0  0  0  0  0
    0.4944   -1.5217    0.0000 C   0  0  0  0  0  0  0  0  0  0  0  0
    2.0161   -2.0161    0.0000 H   0  0  0  0  0  0  0  0  0  0  0  0
   -0.8000   -2.4621    0.0000 S   0  0  0  0  0  0  0  0  0  0  0  0
   -2.0944   -1.5217    0.0000 C   0  0  0  0  0  0  0  0  0  0  0  0
   -3.6161   -2.0161    0.0000 H   0  0  0  0  0  0  0  0  0  0  0  0
   -1.6000   -0.0000    0.0000 C   0  0  0  0  0  0  0  0  0  0  0  0
   -2.5405    1.2944    0.0000 H   0  0  0  0  0  0  0  0  0  0  0  0
  1  2  1  0  0  0  0
  1  3  2  0  0  0  0
  3  4  1  0  0  0  0
  3  5  1  0  0  0  0
  5  6  1  0  0  0  0
  6  7  1  0  0  0  0
  6  8  2  0  0  0  0
  8  1  1  0  0  0  0
  8  9  1  0  0  0  0
M  END
> <ChemID>
103443

> <source_casrn>
872-31-1

> <CAS>
872-31-1

> <SMILES>
Brc1c[s]cc1

> <NAME>
3-BROMOTHIOPHENE

> <preferred_name>
3-Bromothiophene

> <iupac>
3-bromothiophene

> <MPID>
22406

> <dsstox_substance_id>
DTXSID2022129

> <Canonical_QSARr>
Brc1c[s]cc1

> <InChI_Code_QSARr>
InChI=1S/C4H3BrS/c5-4-1-2-6-3-4/h1-3H

> <InChI Key_QSARr>
XCMISAPCWHTVNG-UHFFFAOYSA-N

> <Salt_Solvent>
?

> <BP>
150.0

$$$$
103448
  -INDIGO-08031720192D

 13 13  0  0  0  0  0  0  0  0999 V2000
    0.0000   -0.0000    0.0000 C   0  0  0  0  0  0  0  0  0  0  0  0
   -0.8001    1.3856    0.0000 C   0  0  0  0  0  0  0  0  0  0  0  0
    0.0000    2.7713    0.0000 Cl  0  0  0  0  0  0  0  0  0  0  0  0
   -2.4001    1.3856    0.0000 C   0  0  0  0  0  0  0  0  0  0  0  0
   -3.2000    2.7713    0.0000 H   0  0  0  0  0  0  0  0  0  0  0  0
   -3.2000   -0.0000    0.0000 C   0  0  0  0  0  0  0  0  0  0  0  0
   -4.8000   -0.0000    0.0000 H   0  0  0  0  0  0  0  0  0  0  0  0
   -2.4001   -1.3856    0.0000 C   0  0  0  0  0  0  0  0  0  0  0  0
   -3.2000   -2.7713    0.0000 H   0  0  0  0  0  0  0  0  0  0  0  0
   -0.8001   -1.3856    0.0000 C   0  0  0  0  0  0  0  0  0  0  0  0
    0.0000   -2.7713    0.0000 H   0  0  0  0  0  0  0  0  0  0  0  0
    1.6000   -0.0000    0.0000 C   0  0  0  0  0  0  0  0  0  0  0  0
    3.2000   -0.0000    0.0000 N   0  0  0  0  0  0  0  0  0  0  0  0
  1  2  1  0  0  0  0
  2  3  1  0  0  0  0
  2  4  2  0  0  0  0
  4  5  1  0  0  0  0
  4  6  1  0  0  0  0
  6  7  1  0  0  0  0
  6  8  2  0  0  0  0
  8  9  1  0  0  0  0
  8 10  1  0  0  0  0
 10  1  2  0  0  0  0
 10 11  1  0  0  0  0
  1 12  1  0  0  0  0
 12 13  3  0  0  0  0
M  END
> <ChemID>
103448

> <source_casrn>
873-32-5

> <CAS>
873-32-5

> <SMILES>
N#Cc1ccccc1Cl

> <NAME>
Benzonitrile, 2-chloro-

> <preferred_name>
2-Chlorobenzonitrile

> <iupac>
2-chlorobenzonitrile

> <MPID>
22410

> <dsstox_substance_id>
DTXSID5052593

> <Canonical_QSARr>
N#Cc1ccccc1Cl

> <InChI_Code_QSARr>
InChI=1S/C7H4ClN/c8-7-4-2-1-3-6(7)5-9/h1-4H

> <InChI Key_QSARr>
NHWQMJMIYICNBP-UHFFFAOYSA-N

> <Salt_Solvent>
?

> <BP>
232.0

$$$$
103453
  -INDIGO-08031720192D

 26 26  0  0  0  0  0  0  0  0999 V2000
   -2.4000    1.3856    0.0000 C   0  0  0  0  0  0  0  0  0  0  0  0
   -0.8000    1.3856    0.0000 C   0  0  0  0  0  0  0  0  0  0  0  0
   -1.0779    2.9613    0.0000 H   0  0  0  0  0  0  0  0  0  0  0  0
    0.7035    1.9329    0.0000 H   0  0  0  0  0  0  0  0  0  0  0  0
    0.0000    0.0000    0.0000 C   0  0  0  0  0  0  0  0  0  0  0  0
    1.2256    1.0285    0.0000 C   0  0  0  0  0  0  0  0  0  0  0  0
    2.4513    2.0569    0.0000 H   0  0  0  0  0  0  0  0  0  0  0  0
    2.7292    0.4813    0.0000 H   0  0  0  0  0  0  0  0  0  0  0  0
    1.5035    2.6042    0.0000 H   0  0  0  0  0  0  0  0  0  0  0  0
    1.2256   -1.0285    0.0000 C   0  0  0  0  0  0  0  0  0  0  0  0
    2.4513   -2.0569    0.0000 H   0  0  0  0  0  0  0  0  0  0  0  0
    2.7292   -0.4812    0.0000 H   0  0  0  0  0  0  0  0  0  0  0  0
    1.5035   -2.6041    0.0000 H   0  0  0  0  0  0  0  0  0  0  0  0
   -0.8000   -1.3856    0.0000 C   0  0  0  0  0  0  0  0  0  0  0  0
    0.7035   -1.9328    0.0000 H   0  0  0  0  0  0  0  0  0  0  0  0
   -1.0779   -2.9614    0.0000 H   0  0  0  0  0  0  0  0  0  0  0  0
   -2.4000   -1.3856    0.0000 C   0  0  0  0  0  0  0  0  0  0  0  0
   -2.1222   -2.9614    0.0000 H   0  0  0  0  0  0  0  0  0  0  0  0
   -3.6256   -2.4141    0.0000 C   0  0  0  0  0  0  0  0  0  0  0  0
   -4.8513   -3.4426    0.0000 H   0  0  0  0  0  0  0  0  0  0  0  0
   -3.3478   -3.9898    0.0000 H   0  0  0  0  0  0  0  0  0  0  0  0
   -5.1292   -1.8669    0.0000 H   0  0  0  0  0  0  0  0  0  0  0  0
   -3.2001    0.0000    0.0000 C   0  0  0  0  0  0  0  0  0  0  0  0
   -4.4257   -1.0285    0.0000 H   0  0  0  0  0  0  0  0  0  0  0  0
   -4.4257    1.0285    0.0000 H   0  0  0  0  0  0  0  0  0  0  0  0
   -3.2001    2.7713    0.0000 O   0  0  0  0  0  0  0  0  0  0  0  0
  1  2  1  0  0  0  0
  2  3  1  0  0  0  0
  2  4  1  0  0  0  0
  2  5  1  0  0  0  0
  5  6  1  0  0  0  0
  6  7  1  0  0  0  0
  6  8  1  0  0  0  0
  6  9  1  0  0  0  0
  5 10  1  0  0  0  0
 10 11  1  0  0  0  0
 10 12  1  0  0  0  0
 10 13  1  0  0  0  0
  5 14  1  0  0  0  0
 14 15  1  0  0  0  0
 14 16  1  0  0  0  0
 14 17  1  0  0  0  0
 17 18  1  0  0  0  0
 17 19  1  0  0  0  0
 19 20  1  0  0  0  0
 19 21  1  0  0  0  0
 19 22  1  0  0  0  0
 17 23  1  0  0  0  0
 23  1  1  0  0  0  0
 23 24  1  0  0  0  0
 23 25  1  0  0  0  0
  1 26  2  0  0  0  0
M  END
> <ChemID>
103453

> <source_casrn>
873-94-9

> <CAS>
873-94-9

> <SMILES>
CC1CC(=O)CC(C)(C)C1

> <NAME>
Cyclohexanone, 3,3,5-trimethyl-

> <preferred_name>
3,3,5-Trimethylcyclohexanone

> <iupac>
3,3,5-trimethylcyclohexanone

> <MPID>
22415

> <dsstox_substance_id>
DTXSID5044996

> <Canonical_QSARr>
CC1CC(=O)CC(C)(C)C1

> <InChI_Code_QSARr>
InChI=1S/C9H16O/c1-7-4-8(10)6-9(2,3)5-7/h7H,4-6H2,1-3H3

> <InChI Key_QSARr>
POSWICCRDBKBMH-UHFFFAOYSA-N

> <Salt_Solvent>
?

> <BP>
189.0

$$$$
103457
  -INDIGO-08031720192D

 17 17  0  0  0  0  0  0  0  0999 V2000
    3.2000   -0.0000    0.0000 C   0  0  0  0  0  0  0  0  0  0  0  0
    2.4000    1.3856    0.0000 C   0  0  0  0  0  0  0  0  0  0  0  0
    3.2000    2.7713    0.0000 H   0  0  0  0  0  0  0  0  0  0  0  0
    0.8000    1.3856    0.0000 C   0  0  0  0  0  0  0  0  0  0  0  0
    0.0000    2.7713    0.0000 H   0  0  0  0  0  0  0  0  0  0  0  0
    0.0000   -0.0000    0.0000 C   0  0  0  0  0  0  0  0  0  0  0  0
   -1.6001   -0.0000    0.0000 C   0  0  0  0  0  0  0  0  0  0  0  0
   -3.2000   -0.0000    0.0000 H   0  0  0  0  0  0  0  0  0  0  0  0
   -2.4000   -1.3856    0.0000 H   0  0  0  0  0  0  0  0  0  0  0  0
   -2.4000    1.3856    0.0000 H   0  0  0  0  0  0  0  0  0  0  0  0
    0.8000   -1.3856    0.0000 C   0  0  0  0  0  0  0  0  0  0  0  0
    0.0000   -2.7713    0.0000 H   0  0  0  0  0  0  0  0  0  0  0  0
    2.4000   -1.3856    0.0000 C   0  0  0  0  0  0  0  0  0  0  0  0
    3.2000   -2.7713    0.0000 H   0  0  0  0  0  0  0  0  0  0  0  0
    4.8000   -0.0000    0.0000 C   0  0  0  0  0  0  0  0  0  0  0  0
    5.6000    1.3856    0.0000 Cl  0  0  0  0  0  0  0  0  0  0  0  0
    5.6000   -1.3856    0.0000 O   0  0  0  0  0  0  0  0  0  0  0  0
  1  2  1  0  0  0  0
  2  3  1  0  0  0  0
  2  4  2  0  0  0  0
  4  5  1  0  0  0  0
  4  6  1  0  0  0  0
  6  7  1  0  0  0  0
  7  8  1  0  0  0  0
  7  9  1  0  0  0  0
  7 10  1  0  0  0  0
  6 11  2  0  0  0  0
 11 12  1  0  0  0  0
 11 13  1  0  0  0  0
 13  1  2  0  0  0  0
 13 14  1  0  0  0  0
  1 15  1  0  0  0  0
 15 16  1  0  0  0  0
 15 17  2  0  0  0  0
M  END
> <ChemID>
103457

> <source_casrn>
874-60-2

> <CAS>
874-60-2

> <SMILES>
Cc1ccc(cc1)C(=O)Cl

> <NAME>
Benzoyl chloride, 4-methyl-

> <preferred_name>
p-Toluoyl chloride

> <iupac>
4-methylbenzoyl chloride

> <MPID>
22419

> <dsstox_substance_id>
DTXSID5052595

> <Canonical_QSARr>
Cc1ccc(cc1)C(=O)Cl

> <InChI_Code_QSARr>
InChI=1S/C8H7ClO/c1-6-2-4-7(5-3-6)8(9)10/h2-5H,1H3

> <InChI Key_QSARr>
NQUVCRCCRXRJCK-UHFFFAOYSA-N

> <Salt_Solvent>
?

> <BP>
226.0

$$$$
103461
  -INDIGO-08031720192D

 22 23  0  0  0  0  0  0  0  0999 V2000
   -2.0945    1.5217    0.0000 N   0  0  0  0  0  0  0  0  0  0  0  0
   -1.6000   -0.0000    0.0000 C   0  0  0  0  0  0  0  0  0  0  0  0
    0.0000   -0.0000    0.0000 C   0  0  0  0  0  0  0  0  0  0  0  0
    0.8000   -1.3856    0.0000 C   0  0  0  0  0  0  0  0  0  0  0  0
    2.4000   -1.3856    0.0000 H   0  0  0  0  0  0  0  0  0  0  0  0
    0.0000   -2.7713    0.0000 C   0  0  0  0  0  0  0  0  0  0  0  0
    0.8000   -4.1569    0.0000 H   0  0  0  0  0  0  0  0  0  0  0  0
   -1.6000   -2.7713    0.0000 C   0  0  0  0  0  0  0  0  0  0  0  0
   -2.4000   -4.1569    0.0000 H   0  0  0  0  0  0  0  0  0  0  0  0
   -2.4000   -1.3856    0.0000 C   0  0  0  0  0  0  0  0  0  0  0  0
   -4.0000   -1.3856    0.0000 H   0  0  0  0  0  0  0  0  0  0  0  0
    0.4945    1.5217    0.0000 C   0  0  0  0  0  0  0  0  0  0  0  0
    2.0161    2.0161    0.0000 C   0  0  0  0  0  0  0  0  0  0  0  0
    3.5378    2.5105    0.0000 H   0  0  0  0  0  0  0  0  0  0  0  0
    2.3488    3.5812    0.0000 H   0  0  0  0  0  0  0  0  0  0  0  0
    3.2051    0.9455    0.0000 H   0  0  0  0  0  0  0  0  0  0  0  0
   -0.7999    2.4621    0.0000 C   0  0  0  0  0  0  0  0  0  0  0  0
   -0.7999    4.0621    0.0000 H   0  0  0  0  0  0  0  0  0  0  0  0
   -3.6161    2.0161    0.0000 C   0  0  0  0  0  0  0  0  0  0  0  0
   -5.1378    2.5105    0.0000 H   0  0  0  0  0  0  0  0  0  0  0  0
   -3.9488    3.5812    0.0000 H   0  0  0  0  0  0  0  0  0  0  0  0
   -4.8051    0.9455    0.0000 H   0  0  0  0  0  0  0  0  0  0  0  0
  1  2  1  0  0  0  0
  2  3  1  0  0  0  0
  3  4  2  0  0  0  0
  4  5  1  0  0  0  0
  4  6  1  0  0  0  0
  6  7  1  0  0  0  0
  6  8  2  0  0  0  0
  8  9  1  0  0  0  0
  8 10  1  0  0  0  0
 10  2  2  0  0  0  0
 10 11  1  0  0  0  0
  3 12  1  0  0  0  0
 12 13  1  0  0  0  0
 13 14  1  0  0  0  0
 13 15  1  0  0  0  0
 13 16  1  0  0  0  0
 12 17  2  0  0  0  0
 17  1  1  0  0  0  0
 17 18  1  0  0  0  0
  1 19  1  0  0  0  0
 19 20  1  0  0  0  0
 19 21  1  0  0  0  0
 19 22  1  0  0  0  0
M  END
> <ChemID>
103461

> <source_casrn>
875-30-9

> <CAS>
875-30-9

> <SMILES>
Cc1c[n](C)c2ccccc12

> <NAME>
1H-INDOLE, 1,3-DIMETHYL-

> <preferred_name>
1,3-Dimethylindole

> <iupac>
1,3-Dimethylindole

> <MPID>
22423

> <dsstox_substance_id>
DTXSID80236360

> <Canonical_QSARr>
Cc1c[n](C)c2ccccc12

> <InChI_Code_QSARr>
InChI=1S/C10H11N/c1-8-7-11(2)10-6-4-3-5-9(8)10/h3-7H,1-2H3

> <InChI Key_QSARr>
NAPPMSNSLWACIV-UHFFFAOYSA-N

> <Salt_Solvent>
?

> <BP>
258.5

$$$$
103465
  -INDIGO-08031720192D

 23 24  0  0  0  0  0  0  0  0999 V2000
   -1.3856   -2.4000    0.0000 N   0  0  0  0  0  0  0  0  0  0  0  0
   -0.0001   -1.6000    0.0000 C   0  0  0  0  0  0  0  0  0  0  0  0
    0.0001   -0.0000    0.0000 C   0  0  0  0  0  0  0  0  0  0  0  0
    1.3856    0.8000    0.0000 C   0  0  0  0  0  0  0  0  0  0  0  0
    1.3856    2.4000    0.0000 H   0  0  0  0  0  0  0  0  0  0  0  0
    2.7712   -0.0000    0.0000 C   0  0  0  0  0  0  0  0  0  0  0  0
    2.7712   -1.6000    0.0000 C   0  0  0  0  0  0  0  0  0  0  0  0
    4.1569   -2.4000    0.0000 H   0  0  0  0  0  0  0  0  0  0  0  0
    1.3856   -2.4000    0.0000 C   0  0  0  0  0  0  0  0  0  0  0  0
    1.3856   -4.0000    0.0000 H   0  0  0  0  0  0  0  0  0  0  0  0
    4.1569    0.8000    0.0000 C   0  0  0  0  0  0  0  0  0  0  0  0
    5.5426    1.6000    0.0000 H   0  0  0  0  0  0  0  0  0  0  0  0
    5.5426   -0.0000    0.0000 H   0  0  0  0  0  0  0  0  0  0  0  0
    4.1569    2.4000    0.0000 H   0  0  0  0  0  0  0  0  0  0  0  0
   -1.3856    0.8000    0.0000 C   0  0  0  0  0  0  0  0  0  0  0  0
   -1.3856    2.4000    0.0000 H   0  0  0  0  0  0  0  0  0  0  0  0
   -2.7712   -0.0000    0.0000 C   0  0  0  0  0  0  0  0  0  0  0  0
   -4.1569    0.8000    0.0000 H   0  0  0  0  0  0  0  0  0  0  0  0
   -2.7712   -1.6000    0.0000 C   0  0  0  0  0  0  0  0  0  0  0  0
   -4.1569   -2.4000    0.0000 C   0  0  0  0  0  0  0  0  0  0  0  0
   -5.5426   -3.2000    0.0000 H   0  0  0  0  0  0  0  0  0  0  0  0
   -4.1569   -4.0000    0.0000 H   0  0  0  0  0  0  0  0  0  0  0  0
   -5.5426   -1.6000    0.0000 H   0  0  0  0  0  0  0  0  0  0  0  0
  1  2  1  0  0  0  0
  2  3  1  0  0  0  0
  3  4  2  0  0  0  0
  4  5  1  0  0  0  0
  4  6  1  0  0  0  0
  6  7  2  0  0  0  0
  7  8  1  0  0  0  0
  7  9  1  0  0  0  0
  9  2  2  0  0  0  0
  9 10  1  0  0  0  0
  6 11  1  0  0  0  0
 11 12  1  0  0  0  0
 11 13  1  0  0  0  0
 11 14  1  0  0  0  0
  3 15  1  0  0  0  0
 15 16  1  0  0  0  0
 15 17  2  0  0  0  0
 17 18  1  0  0  0  0
 17 19  1  0  0  0  0
 19  1  2  0  0  0  0
 19 20  1  0  0  0  0
 20 21  1  0  0  0  0
 20 22  1  0  0  0  0
 20 23  1  0  0  0  0
M  END
> <ChemID>
103465

> <source_casrn>
877-43-0

> <CAS>
877-43-0

> <SMILES>
Cc1cc2ccc(C)[n]c2cc1

> <NAME>
2,6-DIMETHYLQUINOLINE

> <preferred_name>
2,6-Dimethylquinoline

> <iupac>
2,6-dimethylquinoline

> <MPID>
22427

> <dsstox_substance_id>
DTXSID0044153

> <Canonical_QSARr>
Cc1cc2ccc(C)[n]c2cc1

> <InChI_Code_QSARr>
InChI=1S/C11H11N/c1-8-3-6-11-10(7-8)5-4-9(2)12-11/h3-7H,1-2H3

> <InChI Key_QSARr>
JJPSZKIOGBRMHK-UHFFFAOYSA-N

> <Salt_Solvent>
?

> <BP>
266.5

$$$$
103469
  -INDIGO-08031720192D

 31 31  0  0  0  0  0  0  0  0999 V2000
    6.4000   -0.0001    0.0000 O   0  0  0  0  0  0  0  0  0  0  0  0
    7.2000    1.3856    0.0000 H   0  0  0  0  0  0  0  0  0  0  0  0
    4.8001    0.0001    0.0000 C   0  0  0  0  0  0  0  0  0  0  0  0
    3.9999    1.3856    0.0000 C   0  0  0  0  0  0  0  0  0  0  0  0
    4.8001    2.7712    0.0000 C   0  0  0  0  0  0  0  0  0  0  0  0
    5.6000    4.1569    0.0000 H   0  0  0  0  0  0  0  0  0  0  0  0
    6.4000    2.7713    0.0000 H   0  0  0  0  0  0  0  0  0  0  0  0
    3.9999    4.1569    0.0000 H   0  0  0  0  0  0  0  0  0  0  0  0
    2.4000    1.3856    0.0000 C   0  0  0  0  0  0  0  0  0  0  0  0
    1.6000    2.7712    0.0000 H   0  0  0  0  0  0  0  0  0  0  0  0
    1.6000    0.0001    0.0000 C   0  0  0  0  0  0  0  0  0  0  0  0
    0.0001   -0.0001    0.0000 C   0  0  0  0  0  0  0  0  0  0  0  0
   -1.6000   -0.0001    0.0000 C   0  0  0  0  0  0  0  0  0  0  0  0
   -3.2000   -0.0001    0.0000 H   0  0  0  0  0  0  0  0  0  0  0  0
   -2.6284    1.2257    0.0000 H   0  0  0  0  0  0  0  0  0  0  0  0
   -2.6284   -1.2257    0.0000 H   0  0  0  0  0  0  0  0  0  0  0  0
    0.0001    1.6000    0.0000 C   0  0  0  0  0  0  0  0  0  0  0  0
    0.2778    3.1757    0.0000 H   0  0  0  0  0  0  0  0  0  0  0  0
   -1.2257    2.6285    0.0000 H   0  0  0  0  0  0  0  0  0  0  0  0
   -1.5036    1.0528    0.0000 H   0  0  0  0  0  0  0  0  0  0  0  0
    0.0001   -1.6000    0.0000 C   0  0  0  0  0  0  0  0  0  0  0  0
    0.2778   -3.1757    0.0000 H   0  0  0  0  0  0  0  0  0  0  0  0
   -1.2257   -2.6285    0.0000 H   0  0  0  0  0  0  0  0  0  0  0  0
   -1.5036   -1.0528    0.0000 H   0  0  0  0  0  0  0  0  0  0  0  0
    2.4000   -1.3856    0.0000 C   0  0  0  0  0  0  0  0  0  0  0  0
    1.6000   -2.7712    0.0000 H   0  0  0  0  0  0  0  0  0  0  0  0
    3.9999   -1.3856    0.0000 C   0  0  0  0  0  0  0  0  0  0  0  0
    4.8001   -2.7712    0.0000 C   0  0  0  0  0  0  0  0  0  0  0  0
    5.6000   -4.1569    0.0000 H   0  0  0  0  0  0  0  0  0  0  0  0
    6.4000   -2.7712    0.0000 H   0  0  0  0  0  0  0  0  0  0  0  0
    3.9999   -4.1569    0.0000 H   0  0  0  0  0  0  0  0  0  0  0  0
  1  2  1  0  0  0  0
  1  3  1  0  0  0  0
  3  4  1  0  0  0  0
  4  5  1  0  0  0  0
  5  6  1  0  0  0  0
  5  7  1  0  0  0  0
  5  8  1  0  0  0  0
  4  9  2  0  0  0  0
  9 10  1  0  0  0  0
  9 11  1  0  0  0  0
 11 12  1  0  0  0  0
 12 13  1  0  0  0  0
 13 14  1  0  0  0  0
 13 15  1  0  0  0  0
 13 16  1  0  0  0  0
 12 17  1  0  0  0  0
 17 18  1  0  0  0  0
 17 19  1  0  0  0  0
 17 20  1  0  0  0  0
 12 21  1  0  0  0  0
 21 22  1  0  0  0  0
 21 23  1  0  0  0  0
 21 24  1  0  0  0  0
 11 25  2  0  0  0  0
 25 26  1  0  0  0  0
 25 27  1  0  0  0  0
 27  3  2  0  0  0  0
 27 28  1  0  0  0  0
 28 29  1  0  0  0  0
 28 30  1  0  0  0  0
 28 31  1  0  0  0  0
M  END
> <ChemID>
103469

> <source_casrn>
879-97-0

> <CAS>
879-97-0

> <SMILES>
CC(C)(C)c1cc(C)c(O)c(C)c1

> <NAME>
Phenol, 4-(1,1-dimethylethyl)-2,6-dimethyl-

> <preferred_name>
Phenol, 4-(1,1-dimethylethyl)-2,6-dimethyl-

> <iupac>
4-tert-Butyl-2,6-dimethylphenol

> <MPID>
22431

> <dsstox_substance_id>
DTXSID4061254

> <Canonical_QSARr>
CC(C)(C)c1cc(C)c(O)c(C)c1

> <InChI_Code_QSARr>
InChI=1S/C12H18O/c1-8-6-10(12(3,4)5)7-9(2)11(8)13/h6-7,13H,1-5H3

> <InChI Key_QSARr>
MEPYMUOZRROULQ-UHFFFAOYSA-N

> <Salt_Solvent>
?

> <BP>
248.0

$$$$
103474
  -INDIGO-08031720192D

 27 29  0  0  0  0  0  0  0  0999 V2000
    1.5529    2.3913    0.0000 O   0  0  0  0  0  0  0  0  0  0  0  0
    3.1179    2.7239    0.0000 N   0  0  0  0  0  0  0  0  0  0  0  0
    3.9180    1.3382    0.0000 C   0  0  0  0  0  0  0  0  0  0  0  0
    5.5093    1.1710    0.0000 C   0  0  0  0  0  0  0  0  0  0  0  0
    6.4497    2.4654    0.0000 C   0  0  0  0  0  0  0  0  0  0  0  0
    5.7988    3.9271    0.0000 H   0  0  0  0  0  0  0  0  0  0  0  0
    8.0409    2.2981    0.0000 C   0  0  0  0  0  0  0  0  0  0  0  0
    8.9813    3.5927    0.0000 H   0  0  0  0  0  0  0  0  0  0  0  0
    8.6916    0.8365    0.0000 C   0  0  0  0  0  0  0  0  0  0  0  0
   10.2829    0.6693    0.0000 H   0  0  0  0  0  0  0  0  0  0  0  0
    7.7512   -0.4579    0.0000 C   0  0  0  0  0  0  0  0  0  0  0  0
    8.4018   -1.9196    0.0000 H   0  0  0  0  0  0  0  0  0  0  0  0
    6.1599   -0.2906    0.0000 C   0  0  0  0  0  0  0  0  0  0  0  0
    5.2195   -1.5850    0.0000 H   0  0  0  0  0  0  0  0  0  0  0  0
    2.8474    0.1492    0.0000 N   0  0  0  0  0  0  0  0  0  0  0  0
    1.3857    0.8001    0.0000 C   0  0  0  0  0  0  0  0  0  0  0  0
   -0.0000    0.0000    0.0000 C   0  0  0  0  0  0  0  0  0  0  0  0
   -0.0000   -1.6000    0.0000 C   0  0  0  0  0  0  0  0  0  0  0  0
    1.3857   -2.3999    0.0000 H   0  0  0  0  0  0  0  0  0  0  0  0
   -1.3857   -2.3999    0.0000 C   0  0  0  0  0  0  0  0  0  0  0  0
   -1.3857   -4.0000    0.0000 H   0  0  0  0  0  0  0  0  0  0  0  0
   -2.7712   -1.6000    0.0000 C   0  0  0  0  0  0  0  0  0  0  0  0
   -4.1569   -2.3999    0.0000 H   0  0  0  0  0  0  0  0  0  0  0  0
   -2.7712    0.0000    0.0000 C   0  0  0  0  0  0  0  0  0  0  0  0
   -4.1569    0.8001    0.0000 H   0  0  0  0  0  0  0  0  0  0  0  0
   -1.3857    0.8001    0.0000 C   0  0  0  0  0  0  0  0  0  0  0  0
   -1.3857    2.4000    0.0000 H   0  0  0  0  0  0  0  0  0  0  0  0
  1  2  1  0  0  0  0
  2  3  2  0  0  0  0
  3  4  1  0  0  0  0
  4  5  1  0  0  0  0
  5  6  1  0  0  0  0
  5  7  2  0  0  0  0
  7  8  1  0  0  0  0
  7  9  1  0  0  0  0
  9 10  1  0  0  0  0
  9 11  2  0  0  0  0
 11 12  1  0  0  0  0
 11 13  1  0  0  0  0
 13  4  2  0  0  0  0
 13 14  1  0  0  0  0
  3 15  1  0  0  0  0
 15 16  2  0  0  0  0
 16  1  1  0  0  0  0
 16 17  1  0  0  0  0
 17 18  1  0  0  0  0
 18 19  1  0  0  0  0
 18 20  2  0  0  0  0
 20 21  1  0  0  0  0
 20 22  1  0  0  0  0
 22 23  1  0  0  0  0
 22 24  2  0  0  0  0
 24 25  1  0  0  0  0
 24 26  1  0  0  0  0
 26 17  2  0  0  0  0
 26 27  1  0  0  0  0
M  END
> <ChemID>
103474

> <source_casrn>
888-71-1

> <CAS>
888-71-1

> <SMILES>
c1ccccc1-c1[n]c([n]o1)-c1ccccc1

> <NAME>
1,2,4-OXADIAZOLE, 3,5-DIPHENYL-

> <preferred_name>
3,5-Diphenyl-1,2,4-oxadiazole

> <iupac>
3,5-di(phenyl)-1,2,4-oxadiazole

> <MPID>
22435

> <dsstox_substance_id>
DTXSID40237338

> <Canonical_QSARr>
c1ccccc1-c1[n]c([n]o1)-c1ccccc1

> <InChI_Code_QSARr>
InChI=1S/C14H10N2O/c1-3-7-11(8-4-1)13-15-14(17-16-13)12-9-5-2-6-10-12/h1-10H

> <InChI Key_QSARr>
VIZNDSYPXQJMCM-UHFFFAOYSA-N

> <Salt_Solvent>
?

> <BP>
290.0

$$$$
103479
  -INDIGO-08031720192D

 20 19  0  0  0  0  0  0  0  0999 V2000
    2.7713    1.6000    0.0000 Br  0  0  0  0  0  0  0  0  0  0  0  0
    2.7713    0.0000    0.0000 C   0  0  0  0  0  0  0  0  0  0  0  0
    4.1569    0.8000    0.0000 F   0  0  0  0  0  0  0  0  0  0  0  0
    4.1569   -0.8000    0.0000 F   0  0  0  0  0  0  0  0  0  0  0  0
    1.3857   -0.8000    0.0000 C   0  0  0  0  0  0  0  0  0  0  0  0
    0.7734   -2.2782    0.0000 F   0  0  0  0  0  0  0  0  0  0  0  0
    1.9980   -2.2782    0.0000 F   0  0  0  0  0  0  0  0  0  0  0  0
    0.0001    0.0000    0.0000 C   0  0  0  0  0  0  0  0  0  0  0  0
    0.6124    1.4782    0.0000 F   0  0  0  0  0  0  0  0  0  0  0  0
   -0.6122    1.4782    0.0000 F   0  0  0  0  0  0  0  0  0  0  0  0
   -1.3857   -0.8000    0.0000 C   0  0  0  0  0  0  0  0  0  0  0  0
   -1.9980   -2.2782    0.0000 F   0  0  0  0  0  0  0  0  0  0  0  0
   -0.7734   -2.2782    0.0000 F   0  0  0  0  0  0  0  0  0  0  0  0
   -2.7713    0.0000    0.0000 C   0  0  0  0  0  0  0  0  0  0  0  0
   -2.1590    1.4782    0.0000 F   0  0  0  0  0  0  0  0  0  0  0  0
   -3.3836    1.4782    0.0000 F   0  0  0  0  0  0  0  0  0  0  0  0
   -4.1569   -0.8000    0.0000 C   0  0  0  0  0  0  0  0  0  0  0  0
   -5.5426   -1.6000    0.0000 Br  0  0  0  0  0  0  0  0  0  0  0  0
   -5.5426    0.0000    0.0000 F   0  0  0  0  0  0  0  0  0  0  0  0
   -4.1569   -2.4000    0.0000 F   0  0  0  0  0  0  0  0  0  0  0  0
  1  2  1  0  0  0  0
  2  3  1  0  0  0  0
  2  4  1  0  0  0  0
  2  5  1  0  0  0  0
  5  6  1  0  0  0  0
  5  7  1  0  0  0  0
  5  8  1  0  0  0  0
  8  9  1  0  0  0  0
  8 10  1  0  0  0  0
  8 11  1  0  0  0  0
 11 12  1  0  0  0  0
 11 13  1  0  0  0  0
 11 14  1  0  0  0  0
 14 15  1  0  0  0  0
 14 16  1  0  0  0  0
 14 17  1  0  0  0  0
 17 18  1  0  0  0  0
 17 19  1  0  0  0  0
 17 20  1  0  0  0  0
M  END
> <ChemID>
103479

> <source_casrn>
918-22-9

> <CAS>
918-22-9

> <SMILES>
FC(F)(Br)C(F)(F)C(F)(F)C(F)(F)C(F)(F)C(F)(F)Br

> <NAME>
1,6-Dibromododecafluorohexane

> <preferred_name>
1,6-Dibromododecafluorohexane

> <iupac>
C6Br2F12

> <MPID>
22440

> <dsstox_substance_id>
DTXSID20335129

> <Canonical_QSARr>
FC(F)(Br)C(F)(F)C(F)(F)C(F)(F)C(F)(F)C(F)(F)Br

> <InChI_Code_QSARr>
InChI=1S/C6Br2F12/c7-5(17,18)3(13,14)1(9,10)2(11,12)4(15,16)6(8,19)20

> <InChI Key_QSARr>
SWAPKQWKFYIOJS-UHFFFAOYSA-N

> <Salt_Solvent>
?

> <BP>
142.0

$$$$
103483
  -INDIGO-08031720192D

 33 32  0  0  0  0  0  0  0  0999 V2000
   -3.6325   -2.1735    0.0000 C   0  0  0  0  0  0  0  0  0  0  0  0
   -2.6042   -0.9479    0.0000 C   0  0  0  0  0  0  0  0  0  0  0  0
   -2.5343    0.6507    0.0000 H   0  0  0  0  0  0  0  0  0  0  0  0
   -3.6851    0.2318    0.0000 H   0  0  0  0  0  0  0  0  0  0  0  0
   -1.0284   -1.2257    0.0000 C   0  0  0  0  0  0  0  0  0  0  0  0
   -1.0982   -2.8242    0.0000 H   0  0  0  0  0  0  0  0  0  0  0  0
    0.0524   -2.4053    0.0000 H   0  0  0  0  0  0  0  0  0  0  0  0
   -0.0000    0.0000    0.0000 Si  0  0  0  0  0  0  0  0  0  0  0  0
    0.8001    1.3856    0.0000 O   0  0  0  0  0  0  0  0  0  0  0  0
    2.3999    1.3856    0.0000 C   0  0  0  0  0  0  0  0  0  0  0  0
    2.6088   -0.2007    0.0000 H   0  0  0  0  0  0  0  0  0  0  0  0
    3.6693    0.4117    0.0000 H   0  0  0  0  0  0  0  0  0  0  0  0
    3.2000    2.7713    0.0000 C   0  0  0  0  0  0  0  0  0  0  0  0
    4.0000    4.1569    0.0000 H   0  0  0  0  0  0  0  0  0  0  0  0
    4.8001    2.7713    0.0000 H   0  0  0  0  0  0  0  0  0  0  0  0
    2.3999    4.1569    0.0000 H   0  0  0  0  0  0  0  0  0  0  0  0
   -0.8000    1.3856    0.0000 O   0  0  0  0  0  0  0  0  0  0  0  0
   -0.0000    2.7713    0.0000 C   0  0  0  0  0  0  0  0  0  0  0  0
    1.4782    3.3836    0.0000 H   0  0  0  0  0  0  0  0  0  0  0  0
    1.4782    2.1589    0.0000 H   0  0  0  0  0  0  0  0  0  0  0  0
   -0.8000    4.1569    0.0000 C   0  0  0  0  0  0  0  0  0  0  0  0
   -1.6001    5.5426    0.0000 H   0  0  0  0  0  0  0  0  0  0  0  0
   -0.0000    5.5426    0.0000 H   0  0  0  0  0  0  0  0  0  0  0  0
   -2.4000    4.1569    0.0000 H   0  0  0  0  0  0  0  0  0  0  0  0
    1.6000    0.0000    0.0000 O   0  0  0  0  0  0  0  0  0  0  0  0
    2.3999   -1.3857    0.0000 C   0  0  0  0  0  0  0  0  0  0  0  0
    1.1306   -2.3596    0.0000 H   0  0  0  0  0  0  0  0  0  0  0  0
    2.1912   -2.9720    0.0000 H   0  0  0  0  0  0  0  0  0  0  0  0
    4.0000   -1.3857    0.0000 C   0  0  0  0  0  0  0  0  0  0  0  0
    4.8001   -2.7713    0.0000 H   0  0  0  0  0  0  0  0  0  0  0  0
    5.6000   -1.3857    0.0000 H   0  0  0  0  0  0  0  0  0  0  0  0
    4.8001    0.0000    0.0000 H   0  0  0  0  0  0  0  0  0  0  0  0
   -4.6611   -3.3992    0.0000 N   0  0  0  0  0  0  0  0  0  0  0  0
  1  2  1  0  0  0  0
  2  3  1  0  0  0  0
  2  4  1  0  0  0  0
  2  5  1  0  0  0  0
  5  6  1  0  0  0  0
  5  7  1  0  0  0  0
  5  8  1  0  0  0  0
  8  9  1  0  0  0  0
  9 10  1  0  0  0  0
 10 11  1  0  0  0  0
 10 12  1  0  0  0  0
 10 13  1  0  0  0  0
 13 14  1  0  0  0  0
 13 15  1  0  0  0  0
 13 16  1  0  0  0  0
  8 17  1  0  0  0  0
 17 18  1  0  0  0  0
 18 19  1  0  0  0  0
 18 20  1  0  0  0  0
 18 21  1  0  0  0  0
 21 22  1  0  0  0  0
 21 23  1  0  0  0  0
 21 24  1  0  0  0  0
  8 25  1  0  0  0  0
 25 26  1  0  0  0  0
 26 27  1  0  0  0  0
 26 28  1  0  0  0  0
 26 29  1  0  0  0  0
 29 30  1  0  0  0  0
 29 31  1  0  0  0  0
 29 32  1  0  0  0  0
  1 33  3  0  0  0  0
M  END
> <ChemID>
103483

> <source_casrn>
919-31-3

> <CAS>
919-31-3

> <SMILES>
CCO[Si](CCC#N)(OCC)OCC

> <NAME>
3-(Triethoxysilyl)propionitrile

> <preferred_name>
3-(Triethoxysilyl)propionitrile

> <iupac>
3-(triethoxysilyl)propanenitrile

> <MPID>
22444

> <dsstox_substance_id>
DTXSID7027334

> <Canonical_QSARr>
CCO[Si](CCC#N)(OCC)OCC

> <InChI_Code_QSARr>
InChI=1S/C9H19NO3Si/c1-4-11-14(12-5-2,13-6-3)9-7-8-10/h4-7,9H2,1-3H3

> <InChI Key_QSARr>
GBQYMXVQHATSCC-UHFFFAOYSA-N

> <Salt_Solvent>
?

> <BP>
224.0

$$$$
103487
  -INDIGO-08031720192D

 12 11  0  0  0  0  0  0  0  0999 V2000
    1.6000    0.0000    0.0000 C   0  0  0  0  0  0  0  0  0  0  0  0
    3.2000    0.0000    0.0000 F   0  0  0  0  0  0  0  0  0  0  0  0
    2.4000   -1.3856    0.0000 F   0  0  0  0  0  0  0  0  0  0  0  0
    2.4000    1.3856    0.0000 F   0  0  0  0  0  0  0  0  0  0  0  0
    0.0000    0.0000    0.0000 C   0  0  0  0  0  0  0  0  0  0  0  0
    0.0000   -1.6000    0.0000 H   0  0  0  0  0  0  0  0  0  0  0  0
    0.0000    1.6000    0.0000 O   0  0  0  0  0  0  0  0  0  0  0  0
    1.3856    2.4000    0.0000 H   0  0  0  0  0  0  0  0  0  0  0  0
   -1.6000    0.0000    0.0000 C   0  0  0  0  0  0  0  0  0  0  0  0
   -3.2000    0.0000    0.0000 F   0  0  0  0  0  0  0  0  0  0  0  0
   -2.4000   -1.3856    0.0000 F   0  0  0  0  0  0  0  0  0  0  0  0
   -2.4000    1.3856    0.0000 F   0  0  0  0  0  0  0  0  0  0  0  0
  1  2  1  0  0  0  0
  1  3  1  0  0  0  0
  1  4  1  0  0  0  0
  1  5  1  0  0  0  0
  5  6  1  0  0  0  0
  5  7  1  0  0  0  0
  7  8  1  0  0  0  0
  5  9  1  0  0  0  0
  9 10  1  0  0  0  0
  9 11  1  0  0  0  0
  9 12  1  0  0  0  0
M  END
> <ChemID>
103487

> <source_casrn>
920-66-1

> <CAS>
920-66-1

> <SMILES>
OC(C(F)(F)F)C(F)(F)F

> <NAME>
1,1,1,3,3,3-HEXAFLUOROPROPAN-2-OL

> <preferred_name>
1,1,1,3,3,3-Hexafluoro-2-propanol

> <iupac>
1,1,1,3,3,3-hexafluoropropan-2-ol

> <MPID>
22448

> <dsstox_substance_id>
DTXSID1022134

> <Canonical_QSARr>
OC(C(F)(F)F)C(F)(F)F

> <InChI_Code_QSARr>
InChI=1S/C3H2F6O/c4-2(5,6)1(10)3(7,8)9/h1,10H

> <InChI Key_QSARr>
BYEAHWXPCBROCE-UHFFFAOYSA-N

> <Salt_Solvent>
?

> <BP>
59.0

$$$$
103493
  -INDIGO-08031720192D

 14 13  0  0  0  0  0  0  0  0999 V2000
    1.3856    2.4000    0.0000 C   0  0  0  0  0  0  0  0  0  0  0  0
    2.7713    3.2000    0.0000 H   0  0  0  0  0  0  0  0  0  0  0  0
    1.3856    0.8000    0.0000 C   0  0  0  0  0  0  0  0  0  0  0  0
    0.0000    0.0000    0.0000 C   0  0  0  0  0  0  0  0  0  0  0  0
    0.6123   -1.4782    0.0000 H   0  0  0  0  0  0  0  0  0  0  0  0
   -0.6123   -1.4782    0.0000 H   0  0  0  0  0  0  0  0  0  0  0  0
   -1.3856    0.8000    0.0000 C   0  0  0  0  0  0  0  0  0  0  0  0
   -2.7713    1.6000    0.0000 H   0  0  0  0  0  0  0  0  0  0  0  0
   -2.7713    0.0000    0.0000 H   0  0  0  0  0  0  0  0  0  0  0  0
   -1.3856    2.4000    0.0000 H   0  0  0  0  0  0  0  0  0  0  0  0
    2.7713    0.0000    0.0000 C   0  0  0  0  0  0  0  0  0  0  0  0
    4.1569    0.8000    0.0000 H   0  0  0  0  0  0  0  0  0  0  0  0
    2.7713   -1.6000    0.0000 H   0  0  0  0  0  0  0  0  0  0  0  0
    0.0000    3.2000    0.0000 O   0  0  0  0  0  0  0  0  0  0  0  0
  1  2  1  0  0  0  0
  1  3  1  0  0  0  0
  3  4  1  0  0  0  0
  4  5  1  0  0  0  0
  4  6  1  0  0  0  0
  4  7  1  0  0  0  0
  7  8  1  0  0  0  0
  7  9  1  0  0  0  0
  7 10  1  0  0  0  0
  3 11  2  0  0  0  0
 11 12  1  0  0  0  0
 11 13  1  0  0  0  0
  1 14  2  0  0  0  0
M  END
> <ChemID>
103493

> <source_casrn>
922-63-4

> <CAS>
922-63-4

> <SMILES>
CCC(=C)C=O

> <NAME>
2-ETHYLPROPENAL

> <preferred_name>
2-Methylenebutanal

> <iupac>
2-methylidenebutanal

> <MPID>
22454

> <dsstox_substance_id>
DTXSID1029205

> <Canonical_QSARr>
CCC(=C)C=O

> <InChI_Code_QSARr>
InChI=1S/C5H8O/c1-3-5(2)4-6/h4H,2-3H2,1H3

> <InChI Key_QSARr>
GMLDCZYTIPCVMO-UHFFFAOYSA-N

> <Salt_Solvent>
?

> <BP>
92.5

$$$$
103497
  -INDIGO-08031720192D

 17 16  0  0  0  0  0  0  0  0999 V2000
    2.7713    0.0000    0.0000 C   0  0  0  0  0  0  0  0  0  0  0  0
    4.1569   -0.8000    0.0000 H   0  0  0  0  0  0  0  0  0  0  0  0
    2.7713    1.6000    0.0000 H   0  0  0  0  0  0  0  0  0  0  0  0
    1.3857   -0.8000    0.0000 C   0  0  0  0  0  0  0  0  0  0  0  0
    1.3857   -2.4000    0.0000 H   0  0  0  0  0  0  0  0  0  0  0  0
    0.0001    0.0000    0.0000 C   0  0  0  0  0  0  0  0  0  0  0  0
   -0.8000   -1.3856    0.0000 H   0  0  0  0  0  0  0  0  0  0  0  0
    0.8000    1.3856    0.0000 O   0  0  0  0  0  0  0  0  0  0  0  0
    0.0001    2.7713    0.0000 H   0  0  0  0  0  0  0  0  0  0  0  0
   -1.5035    0.5472    0.0000 C   0  0  0  0  0  0  0  0  0  0  0  0
   -1.1573    2.1093    0.0000 H   0  0  0  0  0  0  0  0  0  0  0  0
   -2.3632    1.8967    0.0000 H   0  0  0  0  0  0  0  0  0  0  0  0
   -2.7292   -0.4813    0.0000 C   0  0  0  0  0  0  0  0  0  0  0  0
   -2.4513   -2.0569    0.0000 H   0  0  0  0  0  0  0  0  0  0  0  0
   -4.2327    0.0660    0.0000 C   0  0  0  0  0  0  0  0  0  0  0  0
   -5.4584   -0.9624    0.0000 H   0  0  0  0  0  0  0  0  0  0  0  0
   -4.5105    1.6417    0.0000 H   0  0  0  0  0  0  0  0  0  0  0  0
  1  2  1  0  0  0  0
  1  3  1  0  0  0  0
  1  4  2  0  0  0  0
  4  5  1  0  0  0  0
  4  6  1  0  0  0  0
  6  7  1  0  0  0  0
  6  8  1  0  0  0  0
  8  9  1  0  0  0  0
  6 10  1  0  0  0  0
 10 11  1  0  0  0  0
 10 12  1  0  0  0  0
 10 13  1  0  0  0  0
 13 14  1  0  0  0  0
 13 15  2  0  0  0  0
 15 16  1  0  0  0  0
 15 17  1  0  0  0  0
M  END
> <ChemID>
103497

> <source_casrn>
924-41-4

> <CAS>
924-41-4

> <SMILES>
C=CC(O)CC=C

> <NAME>
1,5-HEXADIEN-3-OL

> <preferred_name>
1,5-Hexadien-3-ol

> <iupac>
hexa-1,5-dien-3-ol

> <MPID>
22458

> <dsstox_substance_id>
DTXSID6022135

> <Canonical_QSARr>
C=CC(O)CC=C

> <InChI_Code_QSARr>
InChI=1S/C6H10O/c1-3-5-6(7)4-2/h3-4,6-7H,1-2,5H2

> <InChI Key_QSARr>
SZYLTIUVWARXOO-UHFFFAOYSA-N

> <Salt_Solvent>
?

> <BP>
133.5

$$$$
103501
  -INDIGO-08031720192D

 32 31  0  0  0  0  0  0  0  0999 V2000
    9.6994    0.8000    0.0000 O   0  0  0  0  0  0  0  0  0  0  0  0
   11.0853    0.0000    0.0000 C   0  0  0  0  0  0  0  0  0  0  0  0
   11.6974   -1.4782    0.0000 H   0  0  0  0  0  0  0  0  0  0  0  0
   10.4729   -1.4782    0.0000 H   0  0  0  0  0  0  0  0  0  0  0  0
   12.4709    0.8000    0.0000 C   0  0  0  0  0  0  0  0  0  0  0  0
   11.8584    2.2782    0.0000 H   0  0  0  0  0  0  0  0  0  0  0  0
   13.0830    2.2782    0.0000 H   0  0  0  0  0  0  0  0  0  0  0  0
   13.8564    0.0000    0.0000 C   0  0  0  0  0  0  0  0  0  0  0  0
   15.2420   -0.8000    0.0000 H   0  0  0  0  0  0  0  0  0  0  0  0
   15.2420    0.8000    0.0000 H   0  0  0  0  0  0  0  0  0  0  0  0
   13.8564   -1.6000    0.0000 H   0  0  0  0  0  0  0  0  0  0  0  0
    8.3138    0.0000    0.0000 C   0  0  0  0  0  0  0  0  0  0  0  0
    8.3138   -1.6000    0.0000 O   0  0  0  0  0  0  0  0  0  0  0  0
    6.9282    0.8000    0.0000 C   0  0  0  0  0  0  0  0  0  0  0  0
    6.3158    2.2782    0.0000 H   0  0  0  0  0  0  0  0  0  0  0  0
    7.5406    2.2782    0.0000 H   0  0  0  0  0  0  0  0  0  0  0  0
    5.5426    0.0000    0.0000 C   0  0  0  0  0  0  0  0  0  0  0  0
    6.1550   -1.4782    0.0000 H   0  0  0  0  0  0  0  0  0  0  0  0
    4.9302   -1.4782    0.0000 H   0  0  0  0  0  0  0  0  0  0  0  0
    4.1570    0.8000    0.0000 C   0  0  0  0  0  0  0  0  0  0  0  0
    2.7714    0.0000    0.0000 O   0  0  0  0  0  0  0  0  0  0  0  0
    1.3855    0.8000    0.0000 C   0  0  0  0  0  0  0  0  0  0  0  0
    0.7734    2.2782    0.0000 H   0  0  0  0  0  0  0  0  0  0  0  0
    1.9979    2.2782    0.0000 H   0  0  0  0  0  0  0  0  0  0  0  0
   -0.0001    0.0000    0.0000 C   0  0  0  0  0  0  0  0  0  0  0  0
    0.6123   -1.4782    0.0000 H   0  0  0  0  0  0  0  0  0  0  0  0
   -0.6122   -1.4782    0.0000 H   0  0  0  0  0  0  0  0  0  0  0  0
   -1.3857    0.8000    0.0000 C   0  0  0  0  0  0  0  0  0  0  0  0
   -2.7713    1.6000    0.0000 H   0  0  0  0  0  0  0  0  0  0  0  0
   -2.7713    0.0000    0.0000 H   0  0  0  0  0  0  0  0  0  0  0  0
   -1.3857    2.4000    0.0000 H   0  0  0  0  0  0  0  0  0  0  0  0
    4.1570    2.4000    0.0000 O   0  0  0  0  0  0  0  0  0  0  0  0
  1  2  1  0  0  0  0
  2  3  1  0  0  0  0
  2  4  1  0  0  0  0
  2  5  1  0  0  0  0
  5  6  1  0  0  0  0
  5  7  1  0  0  0  0
  5  8  1  0  0  0  0
  8  9  1  0  0  0  0
  8 10  1  0  0  0  0
  8 11  1  0  0  0  0
  1 12  1  0  0  0  0
 12 13  2  0  0  0  0
 12 14  1  0  0  0  0
 14 15  1  0  0  0  0
 14 16  1  0  0  0  0
 14 17  1  0  0  0  0
 17 18  1  0  0  0  0
 17 19  1  0  0  0  0
 17 20  1  0  0  0  0
 20 21  1  0  0  0  0
 21 22  1  0  0  0  0
 22 23  1  0  0  0  0
 22 24  1  0  0  0  0
 22 25  1  0  0  0  0
 25 26  1  0  0  0  0
 25 27  1  0  0  0  0
 25 28  1  0  0  0  0
 28 29  1  0  0  0  0
 28 30  1  0  0  0  0
 28 31  1  0  0  0  0
 20 32  2  0  0  0  0
M  END
> <ChemID>
103501

> <source_casrn>
925-15-5

> <CAS>
925-15-5

> <SMILES>
CCCOC(=O)CCC(=O)OCCC

> <NAME>
BUTANEDIOIC ACID, DIPROPYL ESTER

> <preferred_name>
Succinic acid, dipropyl ester

> <iupac>
dipropyl butanedioate

> <MPID>
22462

> <dsstox_substance_id>
DTXSID80239018

> <Canonical_QSARr>
CCCOC(=O)CCC(=O)OCCC

> <InChI_Code_QSARr>
InChI=1S/C10H18O4/c1-3-7-13-9(11)5-6-10(12)14-8-4-2/h3-8H2,1-2H3

> <InChI Key_QSARr>
SZHZCPHKDJWHNG-UHFFFAOYSA-N

> <Salt_Solvent>
?

> <BP>
250.8

$$$$
103505
  -INDIGO-08031720192D

 12 11  0  0  0  0  0  0  0  0999 V2000
    1.3856   -0.8000    0.0000 C   0  0  0  0  0  0  0  0  0  0  0  0
    2.7713   -1.6000    0.0000 H   0  0  0  0  0  0  0  0  0  0  0  0
    2.7713    0.0000    0.0000 H   0  0  0  0  0  0  0  0  0  0  0  0
    0.0000    0.0000    0.0000 C   0  0  0  0  0  0  0  0  0  0  0  0
    0.0000    1.6000    0.0000 H   0  0  0  0  0  0  0  0  0  0  0  0
   -1.3856   -0.8000    0.0000 C   0  0  0  0  0  0  0  0  0  0  0  0
   -2.7713    0.0000    0.0000 C   0  0  0  0  0  0  0  0  0  0  0  0
   -4.1569    0.8000    0.0000 H   0  0  0  0  0  0  0  0  0  0  0  0
   -4.1569   -0.8000    0.0000 H   0  0  0  0  0  0  0  0  0  0  0  0
   -2.7713    1.6000    0.0000 H   0  0  0  0  0  0  0  0  0  0  0  0
   -1.3856   -2.4000    0.0000 Cl  0  0  0  0  0  0  0  0  0  0  0  0
    1.3856   -2.4000    0.0000 Cl  0  0  0  0  0  0  0  0  0  0  0  0
  1  2  1  0  0  0  0
  1  3  1  0  0  0  0
  1  4  1  0  0  0  0
  4  5  1  0  0  0  0
  4  6  2  0  0  0  0
  6  7  1  0  0  0  0
  7  8  1  0  0  0  0
  7  9  1  0  0  0  0
  7 10  1  0  0  0  0
  6 11  1  0  0  0  0
  1 12  1  0  0  0  0
M  END
> <ChemID>
103505

> <source_casrn>
926-57-8

> <CAS>
926-57-8

> <SMILES>
CC(Cl)=CCCl

> <NAME>
1,3-DICHLORO-2-BUTENE

> <preferred_name>
1,3-Dichloro-2-butene

> <iupac>
C4H6Cl2

> <MPID>
22466

> <dsstox_substance_id>
DTXSID7027338

> <Canonical_QSARr>
CC(Cl)=CCCl

> <InChI_Code_QSARr>
InChI=1S/C4H6Cl2/c1-4(6)2-3-5/h2H,3H2,1H3/b4-2-

> <InChI Key_QSARr>
WLIADPFXSACYLS-RQOWECAXSA-N

> <Salt_Solvent>
?

> <BP>
131.0

$$$$
103509
  -INDIGO-08031720192D

 29 28  0  0  0  0  0  0  0  0999 V2000
    2.7713   -0.0000    0.0000 C   0  0  0  0  0  0  0  0  0  0  0  0
    4.1569   -0.8000    0.0000 H   0  0  0  0  0  0  0  0  0  0  0  0
    4.1569    0.8000    0.0000 H   0  0  0  0  0  0  0  0  0  0  0  0
    2.7713   -1.6000    0.0000 H   0  0  0  0  0  0  0  0  0  0  0  0
    1.3856   -0.8000    0.0000 C   0  0  0  0  0  0  0  0  0  0  0  0
    0.7733   -2.2782    0.0000 H   0  0  0  0  0  0  0  0  0  0  0  0
    1.9979   -2.2782    0.0000 H   0  0  0  0  0  0  0  0  0  0  0  0
   -0.0001   -0.0000    0.0000 C   0  0  0  0  0  0  0  0  0  0  0  0
   -0.8000   -1.3856    0.0000 H   0  0  0  0  0  0  0  0  0  0  0  0
   -1.3856    0.8000    0.0000 C   0  0  0  0  0  0  0  0  0  0  0  0
   -0.7734    2.2782    0.0000 H   0  0  0  0  0  0  0  0  0  0  0  0
   -1.9979    2.2782    0.0000 H   0  0  0  0  0  0  0  0  0  0  0  0
   -2.7712   -0.0000    0.0000 C   0  0  0  0  0  0  0  0  0  0  0  0
   -1.9713   -1.3856    0.0000 H   0  0  0  0  0  0  0  0  0  0  0  0
   -4.1569   -0.8000    0.0000 C   0  0  0  0  0  0  0  0  0  0  0  0
   -4.7692   -2.2782    0.0000 H   0  0  0  0  0  0  0  0  0  0  0  0
   -3.5446   -2.2782    0.0000 H   0  0  0  0  0  0  0  0  0  0  0  0
   -5.5425   -0.0000    0.0000 C   0  0  0  0  0  0  0  0  0  0  0  0
   -6.9282   -0.8000    0.0000 H   0  0  0  0  0  0  0  0  0  0  0  0
   -6.9282    0.8000    0.0000 H   0  0  0  0  0  0  0  0  0  0  0  0
   -5.5425   -1.6000    0.0000 H   0  0  0  0  0  0  0  0  0  0  0  0
   -3.5713    1.3857    0.0000 C   0  0  0  0  0  0  0  0  0  0  0  0
   -4.3714    2.7713    0.0000 H   0  0  0  0  0  0  0  0  0  0  0  0
   -3.0241    2.8891    0.0000 H   0  0  0  0  0  0  0  0  0  0  0  0
   -5.1713    1.3857    0.0000 H   0  0  0  0  0  0  0  0  0  0  0  0
    0.8000    1.3857    0.0000 C   0  0  0  0  0  0  0  0  0  0  0  0
    1.6001    2.7713    0.0000 H   0  0  0  0  0  0  0  0  0  0  0  0
    0.2528    2.8891    0.0000 H   0  0  0  0  0  0  0  0  0  0  0  0
    2.4000    1.3857    0.0000 H   0  0  0  0  0  0  0  0  0  0  0  0
  1  2  1  0  0  0  0
  1  3  1  0  0  0  0
  1  4  1  0  0  0  0
  1  5  1  0  0  0  0
  5  6  1  0  0  0  0
  5  7  1  0  0  0  0
  5  8  1  0  0  0  0
  8  9  1  0  0  0  0
  8 10  1  0  0  0  0
 10 11  1  0  0  0  0
 10 12  1  0  0  0  0
 10 13  1  0  0  0  0
 13 14  1  0  0  0  0
 13 15  1  0  0  0  0
 15 16  1  0  0  0  0
 15 17  1  0  0  0  0
 15 18  1  0  0  0  0
 18 19  1  0  0  0  0
 18 20  1  0  0  0  0
 18 21  1  0  0  0  0
 13 22  1  0  0  0  0
 22 23  1  0  0  0  0
 22 24  1  0  0  0  0
 22 25  1  0  0  0  0
  8 26  1  0  0  0  0
 26 27  1  0  0  0  0
 26 28  1  0  0  0  0
 26 29  1  0  0  0  0
M  END
> <ChemID>
103509

> <source_casrn>
926-82-9

> <CAS>
NOCAS_870798

> <SMILES>
CC(CC(C)CC)CC

> <NAME>
Heptane, 3,5-dimethyl-

> <preferred_name>


> <iupac>


> <MPID>
22470

> <dsstox_substance_id>
DTXSID30870798

> <Canonical_QSARr>
CC(CC(C)CC)CC

> <InChI_Code_QSARr>
InChI=1S/C9H20/c1-5-8(3)7-9(4)6-2/h8-9H,5-7H2,1-4H3

> <InChI Key_QSARr>
DZJTZGHZAWTWGA-UHFFFAOYSA-N

> <Salt_Solvent>
?

> <BP>
136.0

$$$$
103513
  -INDIGO-08031720192D

 12 11  0  0  0  0  0  0  0  0999 V2000
    0.0000    0.0000    0.0000 C   0  0  0  0  0  0  0  0  0  0  0  0
    0.6123   -1.4782    0.0000 H   0  0  0  0  0  0  0  0  0  0  0  0
   -0.6123   -1.4782    0.0000 H   0  0  0  0  0  0  0  0  0  0  0  0
   -1.3856    0.8000    0.0000 C   0  0  0  0  0  0  0  0  0  0  0  0
   -1.3856    2.4000    0.0000 H   0  0  0  0  0  0  0  0  0  0  0  0
   -2.7713    0.0000    0.0000 C   0  0  0  0  0  0  0  0  0  0  0  0
   -4.1569    0.8000    0.0000 H   0  0  0  0  0  0  0  0  0  0  0  0
   -2.7713   -1.6000    0.0000 H   0  0  0  0  0  0  0  0  0  0  0  0
    1.3856    0.8000    0.0000 C   0  0  0  0  0  0  0  0  0  0  0  0
    2.7713    1.6000    0.0000 H   0  0  0  0  0  0  0  0  0  0  0  0
    2.7713    0.0000    0.0000 H   0  0  0  0  0  0  0  0  0  0  0  0
    1.3856    2.4000    0.0000 Cl  0  0  0  0  0  0  0  0  0  0  0  0
  1  2  1  0  0  0  0
  1  3  1  0  0  0  0
  1  4  1  0  0  0  0
  4  5  1  0  0  0  0
  4  6  2  0  0  0  0
  6  7  1  0  0  0  0
  6  8  1  0  0  0  0
  1  9  1  0  0  0  0
  9 10  1  0  0  0  0
  9 11  1  0  0  0  0
  9 12  1  0  0  0  0
M  END
> <ChemID>
103513

> <source_casrn>
927-73-1

> <CAS>
927-73-1

> <SMILES>
C=CCCCl

> <NAME>
4-CHLORO-1-BUTENE

> <preferred_name>
1-Butene, 4-chloro-

> <iupac>
4-Chlorobut-1-ene

> <MPID>
22474

> <dsstox_substance_id>
DTXSID0061298

> <Canonical_QSARr>
C=CCCCl

> <InChI_Code_QSARr>
InChI=1S/C4H7Cl/c1-2-3-4-5/h2H,1,3-4H2

> <InChI Key_QSARr>
WKEVRZCQFQDCIR-UHFFFAOYSA-N

> <Salt_Solvent>
?

> <BP>
75.0

$$$$
103517
  -INDIGO-08031720192D

 17 16  0  0  0  0  0  0  0  0999 V2000
    2.7713    0.0000    0.0000 O   0  0  0  0  0  0  0  0  0  0  0  0
    4.1569    0.8000    0.0000 N   0  0  0  0  0  0  0  0  0  0  0  0
    5.5426    0.0000    0.0000 O   0  0  0  0  0  0  0  0  0  0  0  0
    4.1569    2.4000    0.0000 O   0  0  0  0  0  0  0  0  0  0  0  0
    1.3857    0.8000    0.0000 C   0  0  0  0  0  0  0  0  0  0  0  0
    1.9980    2.2782    0.0000 H   0  0  0  0  0  0  0  0  0  0  0  0
    0.7734    2.2782    0.0000 H   0  0  0  0  0  0  0  0  0  0  0  0
   -0.0001    0.0000    0.0000 C   0  0  0  0  0  0  0  0  0  0  0  0
   -0.6124   -1.4782    0.0000 H   0  0  0  0  0  0  0  0  0  0  0  0
    0.6122   -1.4782    0.0000 H   0  0  0  0  0  0  0  0  0  0  0  0
   -1.3857    0.8000    0.0000 C   0  0  0  0  0  0  0  0  0  0  0  0
   -0.7734    2.2782    0.0000 H   0  0  0  0  0  0  0  0  0  0  0  0
   -1.9980    2.2782    0.0000 H   0  0  0  0  0  0  0  0  0  0  0  0
   -2.7713    0.0000    0.0000 C   0  0  0  0  0  0  0  0  0  0  0  0
   -4.1569   -0.8000    0.0000 H   0  0  0  0  0  0  0  0  0  0  0  0
   -4.1569    0.8000    0.0000 H   0  0  0  0  0  0  0  0  0  0  0  0
   -2.7713   -1.6000    0.0000 H   0  0  0  0  0  0  0  0  0  0  0  0
  1  2  1  0  0  0  0
  2  3  1  0  0  0  0
  2  4  2  0  0  0  0
  1  5  1  0  0  0  0
  5  6  1  0  0  0  0
  5  7  1  0  0  0  0
  5  8  1  0  0  0  0
  8  9  1  0  0  0  0
  8 10  1  0  0  0  0
  8 11  1  0  0  0  0
 11 12  1  0  0  0  0
 11 13  1  0  0  0  0
 11 14  1  0  0  0  0
 14 15  1  0  0  0  0
 14 16  1  0  0  0  0
 14 17  1  0  0  0  0
M  CHG  2   2   1   3  -1
M  END
> <ChemID>
103517

> <source_casrn>
928-45-0

> <CAS>
928-45-0

> <SMILES>
CCCCO[N+]([O-])=O

> <NAME>
BUTYL NITRATE

> <preferred_name>
Butyl nitrate

> <iupac>
BUTYL NITRATE

> <MPID>
22478

> <dsstox_substance_id>
DTXSID70239143

> <Canonical_QSARr>
CCCCO[N+]([O-])=O

> <InChI_Code_QSARr>
InChI=1S/C4H9NO3/c1-2-3-4-8-5(6)7/h2-4H2,1H3

> <InChI Key_QSARr>
QQHZPQUHCAKSOL-UHFFFAOYSA-N

> <Salt_Solvent>
?

> <BP>
133.0

$$$$
103521
  -INDIGO-08031720192D

 23 22  0  0  0  0  0  0  0  0999 V2000
    4.1569    0.8000    0.0000 Si  0  0  0  0  0  0  0  0  0  0  0  0
    5.5426    1.6000    0.0000 Cl  0  0  0  0  0  0  0  0  0  0  0  0
    5.5426    0.0000    0.0000 Cl  0  0  0  0  0  0  0  0  0  0  0  0
    4.1569    2.4000    0.0000 Cl  0  0  0  0  0  0  0  0  0  0  0  0
    2.7712    0.0000    0.0000 C   0  0  0  0  0  0  0  0  0  0  0  0
    3.3836   -1.4782    0.0000 H   0  0  0  0  0  0  0  0  0  0  0  0
    2.1589   -1.4782    0.0000 H   0  0  0  0  0  0  0  0  0  0  0  0
    1.3856    0.8000    0.0000 C   0  0  0  0  0  0  0  0  0  0  0  0
    0.7734    2.2782    0.0000 H   0  0  0  0  0  0  0  0  0  0  0  0
    1.9979    2.2782    0.0000 H   0  0  0  0  0  0  0  0  0  0  0  0
    0.0001    0.0000    0.0000 C   0  0  0  0  0  0  0  0  0  0  0  0
    0.6122   -1.4782    0.0000 H   0  0  0  0  0  0  0  0  0  0  0  0
   -0.6122   -1.4782    0.0000 H   0  0  0  0  0  0  0  0  0  0  0  0
   -1.3856    0.8000    0.0000 C   0  0  0  0  0  0  0  0  0  0  0  0
   -1.9979    2.2782    0.0000 H   0  0  0  0  0  0  0  0  0  0  0  0
   -0.7734    2.2782    0.0000 H   0  0  0  0  0  0  0  0  0  0  0  0
   -2.7712    0.0000    0.0000 C   0  0  0  0  0  0  0  0  0  0  0  0
   -2.1589   -1.4782    0.0000 H   0  0  0  0  0  0  0  0  0  0  0  0
   -3.3836   -1.4782    0.0000 H   0  0  0  0  0  0  0  0  0  0  0  0
   -4.1569    0.8000    0.0000 C   0  0  0  0  0  0  0  0  0  0  0  0
   -5.5426    1.6000    0.0000 H   0  0  0  0  0  0  0  0  0  0  0  0
   -5.5426    0.0000    0.0000 H   0  0  0  0  0  0  0  0  0  0  0  0
   -4.1569    2.4000    0.0000 H   0  0  0  0  0  0  0  0  0  0  0  0
  1  2  1  0  0  0  0
  1  3  1  0  0  0  0
  1  4  1  0  0  0  0
  1  5  1  0  0  0  0
  5  6  1  0  0  0  0
  5  7  1  0  0  0  0
  5  8  1  0  0  0  0
  8  9  1  0  0  0  0
  8 10  1  0  0  0  0
  8 11  1  0  0  0  0
 11 12  1  0  0  0  0
 11 13  1  0  0  0  0
 11 14  1  0  0  0  0
 14 15  1  0  0  0  0
 14 16  1  0  0  0  0
 14 17  1  0  0  0  0
 17 18  1  0  0  0  0
 17 19  1  0  0  0  0
 17 20  1  0  0  0  0
 20 21  1  0  0  0  0
 20 22  1  0  0  0  0
 20 23  1  0  0  0  0
M  END
> <ChemID>
103521

> <source_casrn>
928-65-4

> <CAS>
928-65-4

> <SMILES>
CCCCCC[Si](Cl)(Cl)Cl

> <NAME>
HEXYLTRICHLOROSILANE

> <preferred_name>
Trichloro(hexyl)silane

> <iupac>
trichloro(hexyl)silane

> <MPID>
22482

> <dsstox_substance_id>
DTXSID4044741

> <Canonical_QSARr>
CCCCCC[Si](Cl)(Cl)Cl

> <InChI_Code_QSARr>
InChI=1S/C6H13Cl3Si/c1-2-3-4-5-6-10(7,8)9/h2-6H2,1H3

> <InChI Key_QSARr>
LFXJGGDONSCPOF-UHFFFAOYSA-N

> <Salt_Solvent>
?

> <BP>
190.0

$$$$
103525
  -INDIGO-08031720192D

 19 18  0  0  0  0  0  0  0  0999 V2000
    4.1569    0.8000    0.0000 C   0  0  0  0  0  0  0  0  0  0  0  0
    4.7692    2.2782    0.0000 H   0  0  0  0  0  0  0  0  0  0  0  0
    3.5446    2.2782    0.0000 H   0  0  0  0  0  0  0  0  0  0  0  0
    2.7712    0.0000    0.0000 C   0  0  0  0  0  0  0  0  0  0  0  0
    2.7712   -1.6000    0.0000 H   0  0  0  0  0  0  0  0  0  0  0  0
    1.3857    0.8000    0.0000 C   0  0  0  0  0  0  0  0  0  0  0  0
    1.3857    2.4000    0.0000 H   0  0  0  0  0  0  0  0  0  0  0  0
    0.0001    0.0000    0.0000 C   0  0  0  0  0  0  0  0  0  0  0  0
   -0.6123   -1.4782    0.0000 H   0  0  0  0  0  0  0  0  0  0  0  0
    0.6122   -1.4782    0.0000 H   0  0  0  0  0  0  0  0  0  0  0  0
   -1.3856    0.8000    0.0000 C   0  0  0  0  0  0  0  0  0  0  0  0
   -0.7733    2.2782    0.0000 H   0  0  0  0  0  0  0  0  0  0  0  0
   -1.9979    2.2782    0.0000 H   0  0  0  0  0  0  0  0  0  0  0  0
   -2.7713    0.0000    0.0000 C   0  0  0  0  0  0  0  0  0  0  0  0
   -4.1569   -0.8000    0.0000 H   0  0  0  0  0  0  0  0  0  0  0  0
   -4.1569    0.8000    0.0000 H   0  0  0  0  0  0  0  0  0  0  0  0
   -2.7713   -1.6000    0.0000 H   0  0  0  0  0  0  0  0  0  0  0  0
    5.5425    0.0000    0.0000 O   0  0  0  0  0  0  0  0  0  0  0  0
    6.9282    0.8000    0.0000 H   0  0  0  0  0  0  0  0  0  0  0  0
  1  2  1  0  0  0  0
  1  3  1  0  0  0  0
  1  4  1  0  0  0  0
  4  5  1  0  0  0  0
  4  6  2  0  0  0  0
  6  7  1  0  0  0  0
  6  8  1  0  0  0  0
  8  9  1  0  0  0  0
  8 10  1  0  0  0  0
  8 11  1  0  0  0  0
 11 12  1  0  0  0  0
 11 13  1  0  0  0  0
 11 14  1  0  0  0  0
 14 15  1  0  0  0  0
 14 16  1  0  0  0  0
 14 17  1  0  0  0  0
  1 18  1  0  0  0  0
 18 19  1  0  0  0  0
M  END
> <ChemID>
103525

> <source_casrn>
928-94-9|928-95-0

> <CAS>
2305-21-7|928-95-0

> <SMILES>
CCCC=CCO

> <NAME>
2-HEXEN-1-OL, (Z)-, 2-Hexen-1-ol, (E)-

> <preferred_name>
Hex-2-en-1-ol

> <iupac>
hex-2-en-1-ol

> <MPID>
22486|22487

> <dsstox_substance_id>
DTXSID3051882|DTXSID2047062

> <Canonical_QSARr>
CCCC=CCO

> <InChI_Code_QSARr>
InChI=1S/C6H12O/c1-2-3-4-5-6-7/h4-5,7H,2-3,6H2,1H3/b5-4+

> <InChI Key_QSARr>
ZCHHRLHTBGRGOT-SNAWJCMRSA-N

> <Salt_Solvent>
?

> <BP>
157.0

$$$$
103531
  -INDIGO-08031720192D

 11 11  0  0  0  0  0  0  0  0999 V2000
    1.5035   -0.5472    0.0000 C   0  0  0  0  0  0  0  0  0  0  0  0
    1.7814   -2.1229    0.0000 H   0  0  0  0  0  0  0  0  0  0  0  0
    2.7292    0.4812    0.0000 C   0  0  0  0  0  0  0  0  0  0  0  0
    4.2327   -0.0660    0.0000 H   0  0  0  0  0  0  0  0  0  0  0  0
    2.4513    2.0569    0.0000 H   0  0  0  0  0  0  0  0  0  0  0  0
    0.0000    0.0000    0.0000 C   0  0  0  0  0  0  0  0  0  0  0  0
    0.2778    1.5757    0.0000 H   0  0  0  0  0  0  0  0  0  0  0  0
   -1.6000    0.0000    0.0000 C   0  0  0  0  0  0  0  0  0  0  0  0
   -1.8778    1.5757    0.0000 H   0  0  0  0  0  0  0  0  0  0  0  0
   -3.1035   -0.5472    0.0000 H   0  0  0  0  0  0  0  0  0  0  0  0
   -0.8001   -1.3856    0.0000 O   0  0  0  0  0  0  0  0  0  0  0  0
  1  2  1  0  0  0  0
  1  3  2  0  0  0  0
  3  4  1  0  0  0  0
  3  5  1  0  0  0  0
  1  6  1  0  0  0  0
  6  7  1  0  0  0  0
  6  8  1  0  0  0  0
  8  9  1  0  0  0  0
  8 10  1  0  0  0  0
  8 11  1  0  0  0  0
 11  6  1  0  0  0  0
M  END
> <ChemID>
103531

> <source_casrn>
930-22-3

> <CAS>
930-22-3

> <SMILES>
C=CC1CO1

> <NAME>
Oxirane, ethenyl-

> <preferred_name>
1,2-Epoxy-3-butene

> <iupac>
2-ethenyloxirane

> <MPID>
22492

> <dsstox_substance_id>
DTXSID4025240

> <Canonical_QSARr>
C=CC1CO1

> <InChI_Code_QSARr>
InChI=1S/C4H6O/c1-2-4-3-5-4/h2,4H,1,3H2

> <InChI Key_QSARr>
GXBYFVGCMPJVJX-UHFFFAOYSA-N

> <Salt_Solvent>
?

> <BP>
68.0

$$$$
103535
  -INDIGO-08031720192D

 12 12  0  0  0  0  0  0  0  0999 V2000
   -0.0001    0.0000    0.0000 N   0  0  0  0  0  0  0  0  0  0  0  0
    1.0706    1.1890    0.0000 N   0  0  0  0  0  0  0  0  0  0  0  0
    2.5323    0.5383    0.0000 C   0  0  0  0  0  0  0  0  0  0  0  0
    3.9179    1.3382    0.0000 H   0  0  0  0  0  0  0  0  0  0  0  0
    2.3650   -1.0530    0.0000 C   0  0  0  0  0  0  0  0  0  0  0  0
    3.5541   -2.1236    0.0000 H   0  0  0  0  0  0  0  0  0  0  0  0
    0.8000   -1.3856    0.0000 C   0  0  0  0  0  0  0  0  0  0  0  0
    0.1492   -2.8473    0.0000 H   0  0  0  0  0  0  0  0  0  0  0  0
   -1.5912    0.1672    0.0000 C   0  0  0  0  0  0  0  0  0  0  0  0
   -3.1825    0.3345    0.0000 H   0  0  0  0  0  0  0  0  0  0  0  0
   -2.2420    1.6289    0.0000 H   0  0  0  0  0  0  0  0  0  0  0  0
   -2.5316   -1.1272    0.0000 H   0  0  0  0  0  0  0  0  0  0  0  0
  1  2  1  0  0  0  0
  2  3  2  0  0  0  0
  3  4  1  0  0  0  0
  3  5  1  0  0  0  0
  5  6  1  0  0  0  0
  5  7  2  0  0  0  0
  7  1  1  0  0  0  0
  7  8  1  0  0  0  0
  1  9  1  0  0  0  0
  9 10  1  0  0  0  0
  9 11  1  0  0  0  0
  9 12  1  0  0  0  0
M  END
> <ChemID>
103535

> <source_casrn>
930-36-9

> <CAS>
930-36-9

> <SMILES>
C[n]1ccc[n]1

> <NAME>
1-METHYLPYRAZOLE

> <preferred_name>
1H-Pyrazole, 1-methyl-

> <iupac>
1-methylpyrazole

> <MPID>
22496

> <dsstox_substance_id>
DTXSID40239231

> <Canonical_QSARr>
C[n]1ccc[n]1

> <InChI_Code_QSARr>
InChI=1S/C4H6N2/c1-6-4-2-3-5-6/h2-4H,1H3

> <InChI Key_QSARr>
UQFQONCQIQEYPJ-UHFFFAOYSA-N

> <Salt_Solvent>
?

> <BP>
127.0

$$$$
103539
  -INDIGO-08031720192D

 16 16  0  0  0  0  0  0  0  0999 V2000
   -2.7712    1.6000    0.0000 C   0  0  0  0  0  0  0  0  0  0  0  0
   -1.3857    2.4000    0.0000 C   0  0  0  0  0  0  0  0  0  0  0  0
   -2.4141    3.6257    0.0000 H   0  0  0  0  0  0  0  0  0  0  0  0
   -0.3572    3.6257    0.0000 H   0  0  0  0  0  0  0  0  0  0  0  0
    0.0000    1.6000    0.0000 C   0  0  0  0  0  0  0  0  0  0  0  0
    0.5473    3.1035    0.0000 H   0  0  0  0  0  0  0  0  0  0  0  0
    1.5757    1.3222    0.0000 H   0  0  0  0  0  0  0  0  0  0  0  0
    0.0000   -0.0000    0.0000 C   0  0  0  0  0  0  0  0  0  0  0  0
    1.5757    0.2778    0.0000 H   0  0  0  0  0  0  0  0  0  0  0  0
    0.5473   -1.5035    0.0000 H   0  0  0  0  0  0  0  0  0  0  0  0
   -1.3857   -0.8000    0.0000 C   0  0  0  0  0  0  0  0  0  0  0  0
   -0.3572   -2.0257    0.0000 H   0  0  0  0  0  0  0  0  0  0  0  0
   -2.4141   -2.0257    0.0000 H   0  0  0  0  0  0  0  0  0  0  0  0
   -2.7712   -0.0000    0.0000 C   0  0  0  0  0  0  0  0  0  0  0  0
   -4.1569   -0.8000    0.0000 H   0  0  0  0  0  0  0  0  0  0  0  0
   -4.1569    2.4000    0.0000 Cl  0  0  0  0  0  0  0  0  0  0  0  0
  1  2  1  0  0  0  0
  2  3  1  0  0  0  0
  2  4  1  0  0  0  0
  2  5  1  0  0  0  0
  5  6  1  0  0  0  0
  5  7  1  0  0  0  0
  5  8  1  0  0  0  0
  8  9  1  0  0  0  0
  8 10  1  0  0  0  0
  8 11  1  0  0  0  0
 11 12  1  0  0  0  0
 11 13  1  0  0  0  0
 11 14  1  0  0  0  0
 14  1  2  0  0  0  0
 14 15  1  0  0  0  0
  1 16  1  0  0  0  0
M  END
> <ChemID>
103539

> <source_casrn>
930-66-5

> <CAS>
930-66-5

> <SMILES>
ClC1CCCCC=1

> <NAME>
CYCLOHEXENE, 1-CHLORO-

> <preferred_name>
1-Chlorocyclohexene

> <iupac>
1-CHLOROCYCLOHEXENE

> <MPID>
22500

> <dsstox_substance_id>
DTXSID0073243

> <Canonical_QSARr>
ClC1CCCCC=1

> <InChI_Code_QSARr>
InChI=1S/C6H9Cl/c7-6-4-2-1-3-5-6/h4H,1-3,5H2

> <InChI Key_QSARr>
BUAKPITZELZWNI-UHFFFAOYSA-N

> <Salt_Solvent>
?

> <BP>
142.5

$$$$
103544
  -INDIGO-08031720192D

 18 18  0  0  0  0  0  0  0  0999 V2000
   -2.7541    0.7380    0.0000 N   0  0  0  0  0  0  0  0  0  0  0  0
   -1.5650   -0.3326    0.0000 C   0  0  0  0  0  0  0  0  0  0  0  0
   -0.0000    0.0000    0.0000 C   0  0  0  0  0  0  0  0  0  0  0  0
    0.5341   -1.5083    0.0000 H   0  0  0  0  0  0  0  0  0  0  0  0
    1.4442   -0.6888    0.0000 H   0  0  0  0  0  0  0  0  0  0  0  0
    0.4944    1.5217    0.0000 C   0  0  0  0  0  0  0  0  0  0  0  0
    0.9889    3.0434    0.0000 H   0  0  0  0  0  0  0  0  0  0  0  0
    2.0595    1.8544    0.0000 H   0  0  0  0  0  0  0  0  0  0  0  0
   -0.5762    2.7107    0.0000 H   0  0  0  0  0  0  0  0  0  0  0  0
   -2.2158   -1.7944    0.0000 N   0  0  0  0  0  0  0  0  0  0  0  0
   -1.4158   -3.1800    0.0000 H   0  0  0  0  0  0  0  0  0  0  0  0
   -3.8070   -1.6271    0.0000 C   0  0  0  0  0  0  0  0  0  0  0  0
   -4.8776   -2.8161    0.0000 H   0  0  0  0  0  0  0  0  0  0  0  0
   -4.1397   -0.0621    0.0000 C   0  0  0  0  0  0  0  0  0  0  0  0
   -5.6014    0.5887    0.0000 C   0  0  0  0  0  0  0  0  0  0  0  0
   -7.0631    1.2395    0.0000 H   0  0  0  0  0  0  0  0  0  0  0  0
   -5.7686    2.1800    0.0000 H   0  0  0  0  0  0  0  0  0  0  0  0
   -6.8959   -0.3517    0.0000 H   0  0  0  0  0  0  0  0  0  0  0  0
  1  2  2  0  0  0  0
  2  3  1  0  0  0  0
  3  4  1  0  0  0  0
  3  5  1  0  0  0  0
  3  6  1  0  0  0  0
  6  7  1  0  0  0  0
  6  8  1  0  0  0  0
  6  9  1  0  0  0  0
  2 10  1  0  0  0  0
 10 11  1  0  0  0  0
 10 12  1  0  0  0  0
 12 13  1  0  0  0  0
 12 14  2  0  0  0  0
 14  1  1  0  0  0  0
 14 15  1  0  0  0  0
 15 16  1  0  0  0  0
 15 17  1  0  0  0  0
 15 18  1  0  0  0  0
M  END
> <ChemID>
103544

> <source_casrn>
931-36-2

> <CAS>
931-36-2

> <SMILES>
Cc1c[nH]c(CC)[n]1

> <NAME>
1H-Imidazole, 2-ethyl-4-methyl-

> <preferred_name>
2-Ethyl-4-methyl-1H-imidazole

> <iupac>
2-ethyl-4-methyl-1H-imidazole

> <MPID>
22505

> <dsstox_substance_id>
DTXSID9044744

> <Canonical_QSARr>
Cc1c[nH]c(CC)[n]1

> <InChI_Code_QSARr>
InChI=1S/C6H10N2/c1-3-6-7-4-5(2)8-6/h4H,3H2,1-2H3,(H,7,8)

> <InChI Key_QSARr>
ULKLGIFJWFIQFF-UHFFFAOYSA-N

> <Salt_Solvent>
?

> <BP>
293.5

$$$$
103548
  -INDIGO-08031720192D

 21 21  0  0  0  0  0  0  0  0999 V2000
    4.1569    0.8000    0.0000 C   0  0  0  0  0  0  0  0  0  0  0  0
    5.5426    0.0000    0.0000 C   0  0  0  0  0  0  0  0  0  0  0  0
    6.9282   -0.8000    0.0000 H   0  0  0  0  0  0  0  0  0  0  0  0
    6.9282    0.8000    0.0000 H   0  0  0  0  0  0  0  0  0  0  0  0
    5.5426   -1.6000    0.0000 H   0  0  0  0  0  0  0  0  0  0  0  0
    4.1569    2.4000    0.0000 O   0  0  0  0  0  0  0  0  0  0  0  0
    2.7713    0.0000    0.0000 C   0  0  0  0  0  0  0  0  0  0  0  0
    2.7713   -1.6000    0.0000 C   0  0  0  0  0  0  0  0  0  0  0  0
    4.1569   -2.4000    0.0000 H   0  0  0  0  0  0  0  0  0  0  0  0
    1.3856   -2.4000    0.0000 C   0  0  0  0  0  0  0  0  0  0  0  0
    2.4141   -3.6257    0.0000 H   0  0  0  0  0  0  0  0  0  0  0  0
    0.3572   -3.6257    0.0000 H   0  0  0  0  0  0  0  0  0  0  0  0
    0.0000   -1.6000    0.0000 C   0  0  0  0  0  0  0  0  0  0  0  0
   -0.5472   -3.1035    0.0000 H   0  0  0  0  0  0  0  0  0  0  0  0
   -1.5757   -1.3222    0.0000 H   0  0  0  0  0  0  0  0  0  0  0  0
    0.0000    0.0000    0.0000 C   0  0  0  0  0  0  0  0  0  0  0  0
   -1.5757   -0.2778    0.0000 H   0  0  0  0  0  0  0  0  0  0  0  0
   -0.5472    1.5035    0.0000 H   0  0  0  0  0  0  0  0  0  0  0  0
    1.3856    0.8000    0.0000 C   0  0  0  0  0  0  0  0  0  0  0  0
    0.3572    2.0257    0.0000 H   0  0  0  0  0  0  0  0  0  0  0  0
    2.4141    2.0257    0.0000 H   0  0  0  0  0  0  0  0  0  0  0  0
  1  2  1  0  0  0  0
  2  3  1  0  0  0  0
  2  4  1  0  0  0  0
  2  5  1  0  0  0  0
  1  6  2  0  0  0  0
  1  7  1  0  0  0  0
  7  8  2  0  0  0  0
  8  9  1  0  0  0  0
  8 10  1  0  0  0  0
 10 11  1  0  0  0  0
 10 12  1  0  0  0  0
 10 13  1  0  0  0  0
 13 14  1  0  0  0  0
 13 15  1  0  0  0  0
 13 16  1  0  0  0  0
 16 17  1  0  0  0  0
 16 18  1  0  0  0  0
 16 19  1  0  0  0  0
 19  7  1  0  0  0  0
 19 20  1  0  0  0  0
 19 21  1  0  0  0  0
M  END
> <ChemID>
103548

> <source_casrn>
932-66-1

> <CAS>
NOCAS_862478

> <SMILES>
CC(=O)C1CCCCC=1

> <NAME>
ETHANONE, 1-(1-CYCLOHEXEN-1-YL)-

> <preferred_name>


> <iupac>


> <MPID>
22509

> <dsstox_substance_id>
DTXSID50862478

> <Canonical_QSARr>
CC(=O)C1CCCCC=1

> <InChI_Code_QSARr>
InChI=1S/C8H12O/c1-7(9)8-5-3-2-4-6-8/h5H,2-4,6H2,1H3

> <InChI Key_QSARr>
LTYLUDGDHUEBGX-UHFFFAOYSA-N

> <Salt_Solvent>
?

> <BP>
201.5

$$$$
103553
  -INDIGO-08031720192D

 24 24  0  0  0  0  0  0  0  0999 V2000
    2.4000    1.3856    0.0000 C   0  0  0  0  0  0  0  0  0  0  0  0
    3.2001    0.0000    0.0000 C   0  0  0  0  0  0  0  0  0  0  0  0
    4.8000    0.0000    0.0000 H   0  0  0  0  0  0  0  0  0  0  0  0
    2.4000   -1.3856    0.0000 C   0  0  0  0  0  0  0  0  0  0  0  0
    3.2001   -2.7713    0.0000 H   0  0  0  0  0  0  0  0  0  0  0  0
    0.8000   -1.3856    0.0000 C   0  0  0  0  0  0  0  0  0  0  0  0
    0.0000   -2.7713    0.0000 H   0  0  0  0  0  0  0  0  0  0  0  0
    0.0000    0.0000    0.0000 C   0  0  0  0  0  0  0  0  0  0  0  0
   -1.6000    0.0000    0.0000 C   0  0  0  0  0  0  0  0  0  0  0  0
   -1.8088    1.5863    0.0000 H   0  0  0  0  0  0  0  0  0  0  0  0
   -2.8694    0.9740    0.0000 H   0  0  0  0  0  0  0  0  0  0  0  0
   -2.4001   -1.3856    0.0000 C   0  0  0  0  0  0  0  0  0  0  0  0
   -3.2000   -2.7713    0.0000 H   0  0  0  0  0  0  0  0  0  0  0  0
   -4.0000   -1.3856    0.0000 H   0  0  0  0  0  0  0  0  0  0  0  0
   -1.6000   -2.7713    0.0000 H   0  0  0  0  0  0  0  0  0  0  0  0
    0.8000    1.3856    0.0000 C   0  0  0  0  0  0  0  0  0  0  0  0
    0.0000    2.7713    0.0000 C   0  0  0  0  0  0  0  0  0  0  0  0
   -0.8000    4.1569    0.0000 H   0  0  0  0  0  0  0  0  0  0  0  0
    0.8000    4.1569    0.0000 H   0  0  0  0  0  0  0  0  0  0  0  0
   -1.6000    2.7713    0.0000 H   0  0  0  0  0  0  0  0  0  0  0  0
    3.2001    2.7713    0.0000 C   0  0  0  0  0  0  0  0  0  0  0  0
    4.0000    4.1569    0.0000 H   0  0  0  0  0  0  0  0  0  0  0  0
    4.8000    2.7713    0.0000 H   0  0  0  0  0  0  0  0  0  0  0  0
    2.4000    4.1569    0.0000 H   0  0  0  0  0  0  0  0  0  0  0  0
  1  2  1  0  0  0  0
  2  3  1  0  0  0  0
  2  4  2  0  0  0  0
  4  5  1  0  0  0  0
  4  6  1  0  0  0  0
  6  7  1  0  0  0  0
  6  8  2  0  0  0  0
  8  9  1  0  0  0  0
  9 10  1  0  0  0  0
  9 11  1  0  0  0  0
  9 12  1  0  0  0  0
 12 13  1  0  0  0  0
 12 14  1  0  0  0  0
 12 15  1  0  0  0  0
  8 16  1  0  0  0  0
 16  1  2  0  0  0  0
 16 17  1  0  0  0  0
 17 18  1  0  0  0  0
 17 19  1  0  0  0  0
 17 20  1  0  0  0  0
  1 21  1  0  0  0  0
 21 22  1  0  0  0  0
 21 23  1  0  0  0  0
 21 24  1  0  0  0  0
M  END
> <ChemID>
103553

> <source_casrn>
933-98-2

> <CAS>
933-98-2

> <SMILES>
CCc1cccc(C)c1C

> <NAME>
1,2-DIMETHYL-3-ETHYLBENZENE

> <preferred_name>


> <iupac>


> <MPID>
22514

> <dsstox_substance_id>
DTXSID00865479

> <Canonical_QSARr>
CCc1cccc(C)c1C

> <InChI_Code_QSARr>
InChI=1S/C10H14/c1-4-10-7-5-6-8(2)9(10)3/h5-7H,4H2,1-3H3

> <InChI Key_QSARr>
QUBBAXISAHIDNM-UHFFFAOYSA-N

> <Salt_Solvent>
?

> <BP>
194.0

$$$$
103557
  -INDIGO-08031720192D

 18 18  0  0  0  0  0  0  0  0999 V2000
   -2.0162    2.0161    0.0000 O   0  0  0  0  0  0  0  0  0  0  0  0
   -1.5216    0.4944    0.0000 C   0  0  0  0  0  0  0  0  0  0  0  0
   -0.0001   -0.0000    0.0000 C   0  0  0  0  0  0  0  0  0  0  0  0
   -0.2915   -1.5732    0.0000 H   0  0  0  0  0  0  0  0  0  0  0  0
    0.9062   -1.3186    0.0000 H   0  0  0  0  0  0  0  0  0  0  0  0
    1.1891    1.0706    0.0000 C   0  0  0  0  0  0  0  0  0  0  0  0
    1.4807    2.6438    0.0000 H   0  0  0  0  0  0  0  0  0  0  0  0
    0.2828    2.3892    0.0000 H   0  0  0  0  0  0  0  0  0  0  0  0
    2.7108    0.5761    0.0000 C   0  0  0  0  0  0  0  0  0  0  0  0
    3.8997    1.6468    0.0000 O   0  0  0  0  0  0  0  0  0  0  0  0
    5.4214    1.1524    0.0000 H   0  0  0  0  0  0  0  0  0  0  0  0
    3.0434   -0.9889    0.0000 O   0  0  0  0  0  0  0  0  0  0  0  0
   -2.8161   -0.4460    0.0000 C   0  0  0  0  0  0  0  0  0  0  0  0
   -2.8161   -2.0460    0.0000 H   0  0  0  0  0  0  0  0  0  0  0  0
   -4.1105    0.4944    0.0000 C   0  0  0  0  0  0  0  0  0  0  0  0
   -5.6322   -0.0000    0.0000 H   0  0  0  0  0  0  0  0  0  0  0  0
   -3.6161    2.0161    0.0000 C   0  0  0  0  0  0  0  0  0  0  0  0
   -4.5566    3.3105    0.0000 H   0  0  0  0  0  0  0  0  0  0  0  0
  1  2  1  0  0  0  0
  2  3  1  0  0  0  0
  3  4  1  0  0  0  0
  3  5  1  0  0  0  0
  3  6  1  0  0  0  0
  6  7  1  0  0  0  0
  6  8  1  0  0  0  0
  6  9  1  0  0  0  0
  9 10  1  0  0  0  0
 10 11  1  0  0  0  0
  9 12  2  0  0  0  0
  2 13  2  0  0  0  0
 13 14  1  0  0  0  0
 13 15  1  0  0  0  0
 15 16  1  0  0  0  0
 15 17  2  0  0  0  0
 17  1  1  0  0  0  0
 17 18  1  0  0  0  0
M  END
> <ChemID>
103557

> <source_casrn>
935-13-7

> <CAS>
935-13-7

> <SMILES>
OC(=O)CCc1ccco1

> <NAME>
3-Furan-2-yl-propionic acid

> <preferred_name>
2-Furanpropionic acid

> <iupac>
3-furan-2-ylpropanoic acid

> <MPID>
22518

> <dsstox_substance_id>
DTXSID70239446

> <Canonical_QSARr>
OC(=O)CCc1ccco1

> <InChI_Code_QSARr>
InChI=1S/C7H8O3/c8-7(9)4-3-6-2-1-5-10-6/h1-2,5H,3-4H2,(H,8,9)

> <InChI Key_QSARr>
XLTJXJJMUFDQEZ-UHFFFAOYSA-N

> <Salt_Solvent>
?

> <BP>
229.0

$$$$
103561
  -INDIGO-08031720192D

 26 26  0  0  0  0  0  0  0  0999 V2000
   -1.0285    1.2257    0.0000 C   0  0  0  0  0  0  0  0  0  0  0  0
    0.0000    0.0000    0.0000 C   0  0  0  0  0  0  0  0  0  0  0  0
    1.2257   -1.0285    0.0000 C   0  0  0  0  0  0  0  0  0  0  0  0
    2.4513   -2.0569    0.0000 H   0  0  0  0  0  0  0  0  0  0  0  0
    2.7292   -0.4812    0.0000 H   0  0  0  0  0  0  0  0  0  0  0  0
    0.9478   -2.6042    0.0000 H   0  0  0  0  0  0  0  0  0  0  0  0
    1.2257    1.0284    0.0000 C   0  0  0  0  0  0  0  0  0  0  0  0
    2.4513    2.0570    0.0000 H   0  0  0  0  0  0  0  0  0  0  0  0
    2.7292    0.4812    0.0000 H   0  0  0  0  0  0  0  0  0  0  0  0
    0.9478    2.6041    0.0000 H   0  0  0  0  0  0  0  0  0  0  0  0
   -1.2257   -1.0285    0.0000 C   0  0  0  0  0  0  0  0  0  0  0  0
   -0.9478   -2.6042    0.0000 H   0  0  0  0  0  0  0  0  0  0  0  0
    0.2778   -1.5757    0.0000 H   0  0  0  0  0  0  0  0  0  0  0  0
   -1.7730    0.4751    0.0000 H   0  0  0  0  0  0  0  0  0  0  0  0
   -0.2284    2.6114    0.0000 O   0  0  0  0  0  0  0  0  0  0  0  0
   -2.6284    1.2257    0.0000 C   0  0  0  0  0  0  0  0  0  0  0  0
   -3.4285    2.6114    0.0000 C   0  0  0  0  0  0  0  0  0  0  0  0
   -2.6284    3.9970    0.0000 H   0  0  0  0  0  0  0  0  0  0  0  0
   -5.0285    2.6114    0.0000 C   0  0  0  0  0  0  0  0  0  0  0  0
   -5.8284    3.9970    0.0000 H   0  0  0  0  0  0  0  0  0  0  0  0
   -5.8284    1.2257    0.0000 C   0  0  0  0  0  0  0  0  0  0  0  0
   -7.4285    1.2257    0.0000 H   0  0  0  0  0  0  0  0  0  0  0  0
   -5.0285   -0.1599    0.0000 C   0  0  0  0  0  0  0  0  0  0  0  0
   -5.8284   -1.5456    0.0000 H   0  0  0  0  0  0  0  0  0  0  0  0
   -3.4285   -0.1599    0.0000 C   0  0  0  0  0  0  0  0  0  0  0  0
   -2.6284   -1.5456    0.0000 H   0  0  0  0  0  0  0  0  0  0  0  0
  1  2  1  0  0  0  0
  2  3  1  0  0  0  0
  3  4  1  0  0  0  0
  3  5  1  0  0  0  0
  3  6  1  0  0  0  0
  2  7  1  0  0  0  0
  7  8  1  0  0  0  0
  7  9  1  0  0  0  0
  7 10  1  0  0  0  0
  2 11  1  0  0  0  0
 11 12  1  0  0  0  0
 11 13  1  0  0  0  0
 11 14  1  0  0  0  0
  1 15  2  0  0  0  0
  1 16  1  0  0  0  0
 16 17  1  0  0  0  0
 17 18  1  0  0  0  0
 17 19  2  0  0  0  0
 19 20  1  0  0  0  0
 19 21  1  0  0  0  0
 21 22  1  0  0  0  0
 21 23  2  0  0  0  0
 23 24  1  0  0  0  0
 23 25  1  0  0  0  0
 25 16  2  0  0  0  0
 25 26  1  0  0  0  0
M  END
> <ChemID>
103561

> <source_casrn>
938-16-9

> <CAS>
938-16-9

> <SMILES>
CC(C)(C)C(=O)c1ccccc1

> <NAME>
2,2-DIMETHYLPROPIOPHENONE

> <preferred_name>
tert-Butyl phenyl ketone

> <iupac>
2,2-dimethyl-1-phenylpropan-1-one

> <MPID>
22522

> <dsstox_substance_id>
DTXSID1048209

> <Canonical_QSARr>
CC(C)(C)C(=O)c1ccccc1

> <InChI_Code_QSARr>
InChI=1S/C11H14O/c1-11(2,3)10(12)9-7-5-4-6-8-9/h4-8H,1-3H3

> <InChI Key_QSARr>
OECPUBRNDKXFDX-UHFFFAOYSA-N

> <Salt_Solvent>
?

> <BP>
220.0

$$$$
103565
  -INDIGO-08031720192D

 24 24  0  0  0  0  0  0  0  0999 V2000
   -2.7712    0.0000    0.0000 C   0  0  0  0  0  0  0  0  0  0  0  0
   -2.7712    1.6000    0.0000 O   0  0  0  0  0  0  0  0  0  0  0  0
   -4.1569   -0.8000    0.0000 C   0  0  0  0  0  0  0  0  0  0  0  0
   -5.5425    0.0000    0.0000 C   0  0  0  0  0  0  0  0  0  0  0  0
   -5.5425    1.6000    0.0000 H   0  0  0  0  0  0  0  0  0  0  0  0
   -6.9282   -0.8000    0.0000 C   0  0  0  0  0  0  0  0  0  0  0  0
   -8.3138    0.0000    0.0000 H   0  0  0  0  0  0  0  0  0  0  0  0
   -6.9282   -2.4000    0.0000 C   0  0  0  0  0  0  0  0  0  0  0  0
   -8.3138   -3.2000    0.0000 H   0  0  0  0  0  0  0  0  0  0  0  0
   -5.5425   -3.2000    0.0000 C   0  0  0  0  0  0  0  0  0  0  0  0
   -5.5425   -4.8000    0.0000 H   0  0  0  0  0  0  0  0  0  0  0  0
   -4.1569   -2.4000    0.0000 C   0  0  0  0  0  0  0  0  0  0  0  0
   -2.7712   -3.2000    0.0000 H   0  0  0  0  0  0  0  0  0  0  0  0
   -1.3857   -0.8000    0.0000 O   0  0  0  0  0  0  0  0  0  0  0  0
   -0.0000    0.0000    0.0000 C   0  0  0  0  0  0  0  0  0  0  0  0
   -0.7999    1.3856    0.0000 H   0  0  0  0  0  0  0  0  0  0  0  0
    1.3856    0.8000    0.0000 C   0  0  0  0  0  0  0  0  0  0  0  0
    2.7713    1.6000    0.0000 H   0  0  0  0  0  0  0  0  0  0  0  0
    2.7713    0.0000    0.0000 H   0  0  0  0  0  0  0  0  0  0  0  0
    1.3856    2.4000    0.0000 H   0  0  0  0  0  0  0  0  0  0  0  0
    0.8000   -1.3856    0.0000 C   0  0  0  0  0  0  0  0  0  0  0  0
    1.5999   -2.7712    0.0000 H   0  0  0  0  0  0  0  0  0  0  0  0
   -0.0000   -2.7712    0.0000 H   0  0  0  0  0  0  0  0  0  0  0  0
    2.4000   -1.3856    0.0000 H   0  0  0  0  0  0  0  0  0  0  0  0
  1  2  2  0  0  0  0
  1  3  1  0  0  0  0
  3  4  1  0  0  0  0
  4  5  1  0  0  0  0
  4  6  2  0  0  0  0
  6  7  1  0  0  0  0
  6  8  1  0  0  0  0
  8  9  1  0  0  0  0
  8 10  2  0  0  0  0
 10 11  1  0  0  0  0
 10 12  1  0  0  0  0
 12  3  2  0  0  0  0
 12 13  1  0  0  0  0
  1 14  1  0  0  0  0
 14 15  1  0  0  0  0
 15 16  1  0  0  0  0
 15 17  1  0  0  0  0
 17 18  1  0  0  0  0
 17 19  1  0  0  0  0
 17 20  1  0  0  0  0
 15 21  1  0  0  0  0
 21 22  1  0  0  0  0
 21 23  1  0  0  0  0
 21 24  1  0  0  0  0
M  END
> <ChemID>
103565

> <source_casrn>
939-48-0

> <CAS>
939-48-0

> <SMILES>
CC(C)OC(=O)c1ccccc1

> <NAME>
BENZOIC ACID, 1-METHYLETHYL ESTER

> <preferred_name>
Propan-2-yl benzoate

> <iupac>
propan-2-yl benzoate

> <MPID>
22526

> <dsstox_substance_id>
DTXSID9044746

> <Canonical_QSARr>
CC(C)OC(=O)c1ccccc1

> <InChI_Code_QSARr>
InChI=1S/C10H12O2/c1-8(2)12-10(11)9-6-4-3-5-7-9/h3-8H,1-2H3

> <InChI Key_QSARr>
FEXQDZTYJVXMOS-UHFFFAOYSA-N

> <Salt_Solvent>
?

> <BP>
216.0

$$$$
103569
  -INDIGO-08031720192D

 23 24  0  0  0  0  0  0  0  0999 V2000
    0.0000    0.0000    0.0000 C   0  0  0  0  0  0  0  0  0  0  0  0
   -0.8000    1.3856    0.0000 C   0  0  0  0  0  0  0  0  0  0  0  0
    0.0000    2.7713    0.0000 H   0  0  0  0  0  0  0  0  0  0  0  0
   -2.4001    1.3856    0.0000 C   0  0  0  0  0  0  0  0  0  0  0  0
   -3.2000    2.7713    0.0000 H   0  0  0  0  0  0  0  0  0  0  0  0
   -3.2000    0.0000    0.0000 C   0  0  0  0  0  0  0  0  0  0  0  0
   -4.8000    0.0000    0.0000 H   0  0  0  0  0  0  0  0  0  0  0  0
   -2.4001   -1.3856    0.0000 C   0  0  0  0  0  0  0  0  0  0  0  0
   -3.2000   -2.7713    0.0000 H   0  0  0  0  0  0  0  0  0  0  0  0
   -0.8000   -1.3856    0.0000 C   0  0  0  0  0  0  0  0  0  0  0  0
    0.0000   -2.7713    0.0000 C   0  0  0  0  0  0  0  0  0  0  0  0
   -0.8000   -4.1569    0.0000 H   0  0  0  0  0  0  0  0  0  0  0  0
    1.6000   -2.7713    0.0000 C   0  0  0  0  0  0  0  0  0  0  0  0
    2.3999   -4.1569    0.0000 H   0  0  0  0  0  0  0  0  0  0  0  0
    2.3999   -1.3856    0.0000 C   0  0  0  0  0  0  0  0  0  0  0  0
    4.0000   -1.3856    0.0000 H   0  0  0  0  0  0  0  0  0  0  0  0
    1.6000    0.0000    0.0000 C   0  0  0  0  0  0  0  0  0  0  0  0
    2.3999    1.3856    0.0000 C   0  0  0  0  0  0  0  0  0  0  0  0
    4.0000    1.3856    0.0000 C   0  0  0  0  0  0  0  0  0  0  0  0
    5.6000    1.3856    0.0000 H   0  0  0  0  0  0  0  0  0  0  0  0
    4.8000    2.7713    0.0000 H   0  0  0  0  0  0  0  0  0  0  0  0
    4.8000    0.0000    0.0000 H   0  0  0  0  0  0  0  0  0  0  0  0
    1.6000    2.7713    0.0000 O   0  0  0  0  0  0  0  0  0  0  0  0
  1  2  1  0  0  0  0
  2  3  1  0  0  0  0
  2  4  2  0  0  0  0
  4  5  1  0  0  0  0
  4  6  1  0  0  0  0
  6  7  1  0  0  0  0
  6  8  2  0  0  0  0
  8  9  1  0  0  0  0
  8 10  1  0  0  0  0
 10  1  1  0  0  0  0
 10 11  2  0  0  0  0
 11 12  1  0  0  0  0
 11 13  1  0  0  0  0
 13 14  1  0  0  0  0
 13 15  2  0  0  0  0
 15 16  1  0  0  0  0
 15 17  1  0  0  0  0
 17  1  2  0  0  0  0
 17 18  1  0  0  0  0
 18 19  1  0  0  0  0
 19 20  1  0  0  0  0
 19 21  1  0  0  0  0
 19 22  1  0  0  0  0
 18 23  2  0  0  0  0
M  END
> <ChemID>
103569

> <source_casrn>
941-98-0

> <CAS>
941-98-0

> <SMILES>
CC(=O)c1cccc2ccccc21

> <NAME>
ALPHA-NAPHTHYL METHYL KETONE

> <preferred_name>
1'-Acetonaphthone

> <iupac>
1-(1-naphthyl)ethanone

> <MPID>
22530

> <dsstox_substance_id>
DTXSID4052635

> <Canonical_QSARr>
CC(=O)c1cccc2ccccc21

> <InChI_Code_QSARr>
InChI=1S/C12H10O/c1-9(13)11-8-4-6-10-5-2-3-7-12(10)11/h2-8H,1H3

> <InChI Key_QSARr>
QQLIGMASAVJVON-UHFFFAOYSA-N

> <Salt_Solvent>
?

> <BP>
297.0

$$$$
103573
  -INDIGO-08031720192D

 26 27  0  0  0  0  0  0  0  0999 V2000
   -2.4000   -1.3856    0.0000 O   0  0  0  0  0  0  0  0  0  0  0  0
   -1.6000    0.0000    0.0000 C   0  0  0  0  0  0  0  0  0  0  0  0
   -1.8088    1.5863    0.0000 H   0  0  0  0  0  0  0  0  0  0  0  0
   -2.8694    0.9740    0.0000 H   0  0  0  0  0  0  0  0  0  0  0  0
    0.0000    0.0000    0.0000 C   0  0  0  0  0  0  0  0  0  0  0  0
    0.8000    1.3856    0.0000 C   0  0  0  0  0  0  0  0  0  0  0  0
    0.0000    2.7713    0.0000 H   0  0  0  0  0  0  0  0  0  0  0  0
    2.4000    1.3856    0.0000 C   0  0  0  0  0  0  0  0  0  0  0  0
    3.2000    2.7713    0.0000 H   0  0  0  0  0  0  0  0  0  0  0  0
    3.2000    0.0000    0.0000 C   0  0  0  0  0  0  0  0  0  0  0  0
    4.8000    0.0000    0.0000 H   0  0  0  0  0  0  0  0  0  0  0  0
    2.4000   -1.3856    0.0000 C   0  0  0  0  0  0  0  0  0  0  0  0
    3.2000   -2.7713    0.0000 H   0  0  0  0  0  0  0  0  0  0  0  0
    0.8000   -1.3856    0.0000 C   0  0  0  0  0  0  0  0  0  0  0  0
    0.0000   -2.7713    0.0000 H   0  0  0  0  0  0  0  0  0  0  0  0
   -4.0000   -1.3856    0.0000 C   0  0  0  0  0  0  0  0  0  0  0  0
   -4.8000   -2.7713    0.0000 C   0  0  0  0  0  0  0  0  0  0  0  0
   -4.0000   -4.1569    0.0000 H   0  0  0  0  0  0  0  0  0  0  0  0
   -6.4000   -2.7713    0.0000 C   0  0  0  0  0  0  0  0  0  0  0  0
   -7.2000   -4.1569    0.0000 H   0  0  0  0  0  0  0  0  0  0  0  0
   -7.2000   -1.3856    0.0000 C   0  0  0  0  0  0  0  0  0  0  0  0
   -8.8000   -1.3856    0.0000 H   0  0  0  0  0  0  0  0  0  0  0  0
   -6.4000    0.0000    0.0000 C   0  0  0  0  0  0  0  0  0  0  0  0
   -7.2000    1.3856    0.0000 H   0  0  0  0  0  0  0  0  0  0  0  0
   -4.8000    0.0000    0.0000 C   0  0  0  0  0  0  0  0  0  0  0  0
   -4.0000    1.3856    0.0000 H   0  0  0  0  0  0  0  0  0  0  0  0
  1  2  1  0  0  0  0
  2  3  1  0  0  0  0
  2  4  1  0  0  0  0
  2  5  1  0  0  0  0
  5  6  1  0  0  0  0
  6  7  1  0  0  0  0
  6  8  2  0  0  0  0
  8  9  1  0  0  0  0
  8 10  1  0  0  0  0
 10 11  1  0  0  0  0
 10 12  2  0  0  0  0
 12 13  1  0  0  0  0
 12 14  1  0  0  0  0
 14  5  2  0  0  0  0
 14 15  1  0  0  0  0
  1 16  1  0  0  0  0
 16 17  1  0  0  0  0
 17 18  1  0  0  0  0
 17 19  2  0  0  0  0
 19 20  1  0  0  0  0
 19 21  1  0  0  0  0
 21 22  1  0  0  0  0
 21 23  2  0  0  0  0
 23 24  1  0  0  0  0
 23 25  1  0  0  0  0
 25 16  2  0  0  0  0
 25 26  1  0  0  0  0
M  END
> <ChemID>
103573

> <source_casrn>
946-80-5

> <CAS>
NOCAS_870813

> <SMILES>
C(Oc1ccccc1)c1ccccc1

> <NAME>
BENZYL PHENYL ETHER

> <preferred_name>


> <iupac>


> <MPID>
22534

> <dsstox_substance_id>
DTXSID70870813

> <Canonical_QSARr>
C(Oc1ccccc1)c1ccccc1

> <InChI_Code_QSARr>
InChI=1S/C13H12O/c1-3-7-12(8-4-1)11-14-13-9-5-2-6-10-13/h1-10H,11H2

> <InChI Key_QSARr>
BOTNYLSAWDQNEX-UHFFFAOYSA-N

> <Salt_Solvent>
?

> <BP>
286.5

$$$$
103578
  -INDIGO-08031720192D

 29 31  0  0  0  0  0  0  0  0999 V2000
   -0.6508   -1.4616    0.0000 C   0  0  0  0  0  0  0  0  0  0  0  0
    0.2896   -2.7561    0.0000 H   0  0  0  0  0  0  0  0  0  0  0  0
   -2.2420   -1.6289    0.0000 C   0  0  0  0  0  0  0  0  0  0  0  0
   -2.8927   -3.0906    0.0000 H   0  0  0  0  0  0  0  0  0  0  0  0
   -3.1824   -0.3345    0.0000 C   0  0  0  0  0  0  0  0  0  0  0  0
   -4.7737   -0.5017    0.0000 H   0  0  0  0  0  0  0  0  0  0  0  0
   -2.5318    1.1271    0.0000 C   0  0  0  0  0  0  0  0  0  0  0  0
   -3.4722    2.4216    0.0000 H   0  0  0  0  0  0  0  0  0  0  0  0
   -0.9405    1.2944    0.0000 C   0  0  0  0  0  0  0  0  0  0  0  0
   -0.2896    2.7561    0.0000 H   0  0  0  0  0  0  0  0  0  0  0  0
   -0.0001    0.0000    0.0000 C   0  0  0  0  0  0  0  0  0  0  0  0
    1.5912    0.1673    0.0000 C   0  0  0  0  0  0  0  0  0  0  0  0
    2.3912    1.5529    0.0000 C   0  0  0  0  0  0  0  0  0  0  0  0
    1.7406    3.0146    0.0000 H   0  0  0  0  0  0  0  0  0  0  0  0
    3.9563    1.2202    0.0000 C   0  0  0  0  0  0  0  0  0  0  0  0
    5.1452    2.2909    0.0000 H   0  0  0  0  0  0  0  0  0  0  0  0
    4.1235   -0.3710    0.0000 C   0  0  0  0  0  0  0  0  0  0  0  0
    5.5092   -1.1710    0.0000 C   0  0  0  0  0  0  0  0  0  0  0  0
    6.8949   -0.3710    0.0000 C   0  0  0  0  0  0  0  0  0  0  0  0
    6.8949    1.2289    0.0000 H   0  0  0  0  0  0  0  0  0  0  0  0
    8.2804   -1.1710    0.0000 C   0  0  0  0  0  0  0  0  0  0  0  0
    9.6661   -0.3710    0.0000 H   0  0  0  0  0  0  0  0  0  0  0  0
    8.2804   -2.7710    0.0000 C   0  0  0  0  0  0  0  0  0  0  0  0
    9.6661   -3.5710    0.0000 H   0  0  0  0  0  0  0  0  0  0  0  0
    6.8949   -3.5710    0.0000 C   0  0  0  0  0  0  0  0  0  0  0  0
    6.8949   -5.1710    0.0000 H   0  0  0  0  0  0  0  0  0  0  0  0
    5.5092   -2.7710    0.0000 C   0  0  0  0  0  0  0  0  0  0  0  0
    4.1235   -3.5710    0.0000 H   0  0  0  0  0  0  0  0  0  0  0  0
    2.6618   -1.0218    0.0000 O   0  0  0  0  0  0  0  0  0  0  0  0
  1  2  1  0  0  0  0
  1  3  1  0  0  0  0
  3  4  1  0  0  0  0
  3  5  2  0  0  0  0
  5  6  1  0  0  0  0
  5  7  1  0  0  0  0
  7  8  1  0  0  0  0
  7  9  2  0  0  0  0
  9 10  1  0  0  0  0
  9 11  1  0  0  0  0
 11  1  2  0  0  0  0
 11 12  1  0  0  0  0
 12 13  2  0  0  0  0
 13 14  1  0  0  0  0
 13 15  1  0  0  0  0
 15 16  1  0  0  0  0
 15 17  2  0  0  0  0
 17 18  1  0  0  0  0
 18 19  1  0  0  0  0
 19 20  1  0  0  0  0
 19 21  2  0  0  0  0
 21 22  1  0  0  0  0
 21 23  1  0  0  0  0
 23 24  1  0  0  0  0
 23 25  2  0  0  0  0
 25 26  1  0  0  0  0
 25 27  1  0  0  0  0
 27 18  2  0  0  0  0
 27 28  1  0  0  0  0
 17 29  1  0  0  0  0
 29 12  1  0  0  0  0
M  END
> <ChemID>
103578

> <source_casrn>
955-83-9

> <CAS>
955-83-9

> <SMILES>
c1cc(oc1-c1ccccc1)-c1ccccc1

> <NAME>
Furan, 2,5-diphenyl-

> <preferred_name>
2,5-Diphenylfuran

> <iupac>
2,5-diphenylfuran

> <MPID>
22538

> <dsstox_substance_id>
DTXSID5022142

> <Canonical_QSARr>
c1cc(oc1-c1ccccc1)-c1ccccc1

> <InChI_Code_QSARr>
InChI=1S/C16H12O/c1-3-7-13(8-4-1)15-11-12-16(17-15)14-9-5-2-6-10-14/h1-12H

> <InChI Key_QSARr>
VUPDHIIPAKIKAB-UHFFFAOYSA-N

> <Salt_Solvent>
?

> <BP>
344.0

$$$$
103587
  -INDIGO-08031720192D

 19 18  0  0  0  0  0  0  0  0999 V2000
   -1.6000    0.0000    0.0000 N   0  0  0  0  0  0  0  0  0  0  0  0
   -0.0000    0.0000    0.0000 C   0  0  0  0  0  0  0  0  0  0  0  0
   -0.0000   -1.6000    0.0000 H   0  0  0  0  0  0  0  0  0  0  0  0
    1.6000    0.0000    0.0000 C   0  0  0  0  0  0  0  0  0  0  0  0
    3.2000    0.0000    0.0000 H   0  0  0  0  0  0  0  0  0  0  0  0
    2.4000   -1.3857    0.0000 H   0  0  0  0  0  0  0  0  0  0  0  0
    2.4000    1.3856    0.0000 H   0  0  0  0  0  0  0  0  0  0  0  0
   -0.0000    1.6000    0.0000 C   0  0  0  0  0  0  0  0  0  0  0  0
   -0.0000    3.2000    0.0000 H   0  0  0  0  0  0  0  0  0  0  0  0
    1.3857    2.4000    0.0000 H   0  0  0  0  0  0  0  0  0  0  0  0
   -1.3857    2.4000    0.0000 H   0  0  0  0  0  0  0  0  0  0  0  0
   -2.4000   -1.3857    0.0000 C   0  0  0  0  0  0  0  0  0  0  0  0
   -3.2000   -2.7713    0.0000 H   0  0  0  0  0  0  0  0  0  0  0  0
   -4.0000   -1.3857    0.0000 H   0  0  0  0  0  0  0  0  0  0  0  0
   -1.6000   -2.7713    0.0000 H   0  0  0  0  0  0  0  0  0  0  0  0
   -2.4000    1.3856    0.0000 C   0  0  0  0  0  0  0  0  0  0  0  0
   -4.0000    1.3856    0.0000 H   0  0  0  0  0  0  0  0  0  0  0  0
   -3.2000    2.7713    0.0000 H   0  0  0  0  0  0  0  0  0  0  0  0
   -3.2000    0.0000    0.0000 H   0  0  0  0  0  0  0  0  0  0  0  0
  1  2  1  0  0  0  0
  2  3  1  0  0  0  0
  2  4  1  0  0  0  0
  4  5  1  0  0  0  0
  4  6  1  0  0  0  0
  4  7  1  0  0  0  0
  2  8  1  0  0  0  0
  8  9  1  0  0  0  0
  8 10  1  0  0  0  0
  8 11  1  0  0  0  0
  1 12  1  0  0  0  0
 12 13  1  0  0  0  0
 12 14  1  0  0  0  0
 12 15  1  0  0  0  0
  1 16  1  0  0  0  0
 16 17  1  0  0  0  0
 16 18  1  0  0  0  0
 16 19  1  0  0  0  0
M  END
> <ChemID>
103587

> <source_casrn>
996-35-0

> <CAS>
996-35-0

> <SMILES>
CC(C)N(C)C

> <NAME>
N,N-Dimethylisopropylamine

> <preferred_name>
Dimethylisopropylamine

> <iupac>
N,N-dimethylpropan-2-amine

> <MPID>
22542

> <dsstox_substance_id>
DTXSID2033447

> <Canonical_QSARr>
CC(C)N(C)C

> <InChI_Code_QSARr>
InChI=1S/C5H13N/c1-5(2)6(3)4/h5H,1-4H3

> <InChI Key_QSARr>
VMOWKUTXPNPTEN-UHFFFAOYSA-N

> <Salt_Solvent>
?

> <BP>
66.0

$$$$
103593
  -INDIGO-08031720192D

 23 22  0  0  0  0  0  0  0  0999 V2000
   -0.0001    0.0000    0.0000 Si  0  0  0  0  0  0  0  0  0  0  0  0
    1.3856   -0.8000    0.0000 C   0  0  0  0  0  0  0  0  0  0  0  0
    2.7713   -1.6000    0.0000 H   0  0  0  0  0  0  0  0  0  0  0  0
    1.3856   -2.4000    0.0000 H   0  0  0  0  0  0  0  0  0  0  0  0
    2.7713    0.0000    0.0000 H   0  0  0  0  0  0  0  0  0  0  0  0
   -0.8000   -1.3856    0.0000 Cl  0  0  0  0  0  0  0  0  0  0  0  0
   -1.5035    0.5472    0.0000 C   0  0  0  0  0  0  0  0  0  0  0  0
   -1.1572    2.1093    0.0000 H   0  0  0  0  0  0  0  0  0  0  0  0
   -2.3631    1.8966    0.0000 H   0  0  0  0  0  0  0  0  0  0  0  0
   -2.7292   -0.4812    0.0000 C   0  0  0  0  0  0  0  0  0  0  0  0
   -3.0754   -2.0433    0.0000 H   0  0  0  0  0  0  0  0  0  0  0  0
   -1.8695   -1.8306    0.0000 H   0  0  0  0  0  0  0  0  0  0  0  0
   -4.2327    0.0660    0.0000 C   0  0  0  0  0  0  0  0  0  0  0  0
   -3.8863    1.6281    0.0000 H   0  0  0  0  0  0  0  0  0  0  0  0
   -5.0923    1.4155    0.0000 H   0  0  0  0  0  0  0  0  0  0  0  0
   -5.4584   -0.9625    0.0000 C   0  0  0  0  0  0  0  0  0  0  0  0
   -6.6840   -1.9909    0.0000 H   0  0  0  0  0  0  0  0  0  0  0  0
   -6.9619   -0.4152    0.0000 H   0  0  0  0  0  0  0  0  0  0  0  0
   -5.1805   -2.5381    0.0000 H   0  0  0  0  0  0  0  0  0  0  0  0
    0.8000    1.3857    0.0000 C   0  0  0  0  0  0  0  0  0  0  0  0
    1.6001    2.7713    0.0000 H   0  0  0  0  0  0  0  0  0  0  0  0
   -0.0001    2.7713    0.0000 H   0  0  0  0  0  0  0  0  0  0  0  0
    2.4000    1.3857    0.0000 H   0  0  0  0  0  0  0  0  0  0  0  0
  1  2  1  0  0  0  0
  2  3  1  0  0  0  0
  2  4  1  0  0  0  0
  2  5  1  0  0  0  0
  1  6  1  0  0  0  0
  1  7  1  0  0  0  0
  7  8  1  0  0  0  0
  7  9  1  0  0  0  0
  7 10  1  0  0  0  0
 10 11  1  0  0  0  0
 10 12  1  0  0  0  0
 10 13  1  0  0  0  0
 13 14  1  0  0  0  0
 13 15  1  0  0  0  0
 13 16  1  0  0  0  0
 16 17  1  0  0  0  0
 16 18  1  0  0  0  0
 16 19  1  0  0  0  0
  1 20  1  0  0  0  0
 20 21  1  0  0  0  0
 20 22  1  0  0  0  0
 20 23  1  0  0  0  0
M  END
> <ChemID>
103593

> <source_casrn>
1000-50-6

> <CAS>
1000-50-6

> <SMILES>
CCCC[Si](C)(C)Cl

> <NAME>
Silane, butylchlorodimethyl-

> <preferred_name>
Silane, butylchlorodimethyl-

> <iupac>
butyl-chloro-dimethylsilane

> <MPID>
22546

> <dsstox_substance_id>
DTXSID5061376

> <Canonical_QSARr>
CCCC[Si](C)(C)Cl

> <InChI_Code_QSARr>
InChI=1S/C6H15ClSi/c1-4-5-6-8(2,3)7/h4-6H2,1-3H3

> <InChI Key_QSARr>
MXOSTENCGSDMRE-UHFFFAOYSA-N

> <Salt_Solvent>
?

> <BP>
139.0

$$$$
103597
  -INDIGO-08031720192D

 20 19  0  0  0  0  0  0  0  0999 V2000
    5.5425   -0.0000    0.0000 N   0  0  0  0  0  0  0  0  0  0  0  0
    6.9282    0.8000    0.0000 O   0  0  0  0  0  0  0  0  0  0  0  0
    5.5425   -1.6000    0.0000 O   0  0  0  0  0  0  0  0  0  0  0  0
    4.1569    0.8000    0.0000 O   0  0  0  0  0  0  0  0  0  0  0  0
    2.7712   -0.0000    0.0000 C   0  0  0  0  0  0  0  0  0  0  0  0
    3.3835   -1.4782    0.0000 H   0  0  0  0  0  0  0  0  0  0  0  0
    2.1591   -1.4782    0.0000 H   0  0  0  0  0  0  0  0  0  0  0  0
    1.3856    0.8000    0.0000 C   0  0  0  0  0  0  0  0  0  0  0  0
    0.7734    2.2782    0.0000 H   0  0  0  0  0  0  0  0  0  0  0  0
    1.9979    2.2782    0.0000 H   0  0  0  0  0  0  0  0  0  0  0  0
    0.0001   -0.0000    0.0000 C   0  0  0  0  0  0  0  0  0  0  0  0
    0.6122   -1.4782    0.0000 H   0  0  0  0  0  0  0  0  0  0  0  0
   -0.6123   -1.4782    0.0000 H   0  0  0  0  0  0  0  0  0  0  0  0
   -1.3856    0.8000    0.0000 C   0  0  0  0  0  0  0  0  0  0  0  0
   -1.9979    2.2782    0.0000 H   0  0  0  0  0  0  0  0  0  0  0  0
   -0.7733    2.2782    0.0000 H   0  0  0  0  0  0  0  0  0  0  0  0
   -2.7713   -0.0000    0.0000 C   0  0  0  0  0  0  0  0  0  0  0  0
   -4.1569   -0.8000    0.0000 H   0  0  0  0  0  0  0  0  0  0  0  0
   -4.1569    0.8000    0.0000 H   0  0  0  0  0  0  0  0  0  0  0  0
   -2.7713   -1.6000    0.0000 H   0  0  0  0  0  0  0  0  0  0  0  0
  1  2  1  0  0  0  0
  1  3  2  0  0  0  0
  1  4  1  0  0  0  0
  4  5  1  0  0  0  0
  5  6  1  0  0  0  0
  5  7  1  0  0  0  0
  5  8  1  0  0  0  0
  8  9  1  0  0  0  0
  8 10  1  0  0  0  0
  8 11  1  0  0  0  0
 11 12  1  0  0  0  0
 11 13  1  0  0  0  0
 11 14  1  0  0  0  0
 14 15  1  0  0  0  0
 14 16  1  0  0  0  0
 14 17  1  0  0  0  0
 17 18  1  0  0  0  0
 17 19  1  0  0  0  0
 17 20  1  0  0  0  0
M  CHG  2   1   1   2  -1
M  END
> <ChemID>
103597

> <source_casrn>
1002-16-0

> <CAS>
1002-16-0

> <SMILES>
CCCCCO[N+]([O-])=O

> <NAME>
1-PENTYL NITRATE

> <preferred_name>
Amyl nitrate

> <iupac>
Pentyl nitrate

> <MPID>
22550

> <dsstox_substance_id>
DTXSID2058708

> <Canonical_QSARr>
CCCCCO[N+]([O-])=O

> <InChI_Code_QSARr>
InChI=1S/C5H11NO3/c1-2-3-4-5-9-6(7)8/h2-5H2,1H3

> <InChI Key_QSARr>
HSNWZBCBUUSSQD-UHFFFAOYSA-N

> <Salt_Solvent>
?

> <BP>
157.0

$$$$
103601
  -INDIGO-08031720192D

 17 17  0  0  0  0  0  0  0  0999 V2000
   -0.0000    0.0000    0.0000 C   0  0  0  0  0  0  0  0  0  0  0  0
    0.6508    1.4617    0.0000 H   0  0  0  0  0  0  0  0  0  0  0  0
   -0.3326   -1.5651    0.0000 C   0  0  0  0  0  0  0  0  0  0  0  0
    1.2585   -1.7322    0.0000 H   0  0  0  0  0  0  0  0  0  0  0  0
   -0.3326   -3.1650    0.0000 H   0  0  0  0  0  0  0  0  0  0  0  0
   -1.9239   -1.7322    0.0000 C   0  0  0  0  0  0  0  0  0  0  0  0
   -1.5912   -3.2973    0.0000 H   0  0  0  0  0  0  0  0  0  0  0  0
   -3.4456   -2.2267    0.0000 H   0  0  0  0  0  0  0  0  0  0  0  0
   -2.5747   -0.2706    0.0000 C   0  0  0  0  0  0  0  0  0  0  0  0
   -3.9603   -1.0706    0.0000 H   0  0  0  0  0  0  0  0  0  0  0  0
   -3.5152    1.0238    0.0000 H   0  0  0  0  0  0  0  0  0  0  0  0
   -1.3856    0.8000    0.0000 C   0  0  0  0  0  0  0  0  0  0  0  0
   -2.5747    1.8706    0.0000 H   0  0  0  0  0  0  0  0  0  0  0  0
   -0.4452    2.0944    0.0000 H   0  0  0  0  0  0  0  0  0  0  0  0
    1.5991    0.0559    0.0000 N   0  0  0  0  0  0  0  0  0  0  0  0
    2.3502    1.4686    0.0000 H   0  0  0  0  0  0  0  0  0  0  0  0
    2.4469   -1.3011    0.0000 H   0  0  0  0  0  0  0  0  0  0  0  0
  1  2  1  0  0  0  0
  1  3  1  0  0  0  0
  3  4  1  0  0  0  0
  3  5  1  0  0  0  0
  3  6  1  0  0  0  0
  6  7  1  0  0  0  0
  6  8  1  0  0  0  0
  6  9  1  0  0  0  0
  9 10  1  0  0  0  0
  9 11  1  0  0  0  0
  9 12  1  0  0  0  0
 12  1  1  0  0  0  0
 12 13  1  0  0  0  0
 12 14  1  0  0  0  0
  1 15  1  0  0  0  0
 15 16  1  0  0  0  0
 15 17  1  0  0  0  0
M  END
> <ChemID>
103601

> <source_casrn>
1003-03-8

> <CAS>
1003-03-8

> <SMILES>
NC1CCCC1

> <NAME>
Cyclopentanamine

> <preferred_name>
Cyclopentanamine

> <iupac>
Cyclopentanamine

> <MPID>
22554

> <dsstox_substance_id>
DTXSID4061387

> <Canonical_QSARr>
NC1CCCC1

> <InChI_Code_QSARr>
InChI=1S/C5H11N/c6-5-3-1-2-4-5/h5H,1-4,6H2

> <InChI Key_QSARr>
NISGSNTVMOOSJQ-UHFFFAOYSA-N

> <Salt_Solvent>
?

> <BP>
108.0

$$$$
103605
  -INDIGO-08031720192D

 10 10  0  0  0  0  0  0  0  0999 V2000
   -0.5382    2.5323    0.0000 S   0  0  0  0  0  0  0  0  0  0  0  0
    0.6507    1.4617    0.0000 C   0  0  0  0  0  0  0  0  0  0  0  0
    2.2158    1.7943    0.0000 C   0  0  0  0  0  0  0  0  0  0  0  0
    3.7809    2.1270    0.0000 N   0  0  0  0  0  0  0  0  0  0  0  0
   -0.0000    0.0000    0.0000 C   0  0  0  0  0  0  0  0  0  0  0  0
    0.8000   -1.3856    0.0000 H   0  0  0  0  0  0  0  0  0  0  0  0
   -1.5912    0.1672    0.0000 C   0  0  0  0  0  0  0  0  0  0  0  0
   -2.6619   -1.0218    0.0000 H   0  0  0  0  0  0  0  0  0  0  0  0
   -1.9239    1.7323    0.0000 C   0  0  0  0  0  0  0  0  0  0  0  0
   -3.3856    2.3831    0.0000 H   0  0  0  0  0  0  0  0  0  0  0  0
  1  2  1  0  0  0  0
  2  3  1  0  0  0  0
  3  4  3  0  0  0  0
  2  5  2  0  0  0  0
  5  6  1  0  0  0  0
  5  7  1  0  0  0  0
  7  8  1  0  0  0  0
  7  9  2  0  0  0  0
  9  1  1  0  0  0  0
  9 10  1  0  0  0  0
M  END
> <ChemID>
103605

> <source_casrn>
1003-31-2

> <CAS>
1003-31-2

> <SMILES>
N#Cc1ccc[s]1

> <NAME>
2-CYANOTHIOPHENE

> <preferred_name>
Thiophene-2-carbonitrile

> <iupac>
Thiophene-2-carbonitrile

> <MPID>
22558

> <dsstox_substance_id>
DTXSID10143114

> <Canonical_QSARr>
N#Cc1ccc[s]1

> <InChI_Code_QSARr>
InChI=1S/C5H3NS/c6-4-5-2-1-3-7-5/h1-3H

> <InChI Key_QSARr>
CUPOOAWTRIURFT-UHFFFAOYSA-N

> <Salt_Solvent>
?

> <BP>
192.0

$$$$
103610
  -INDIGO-08031720192D

 22 22  0  0  0  0  0  0  0  0999 V2000
    0.8000    1.3856    0.0000 O   0  0  0  0  0  0  0  0  0  0  0  0
   -0.0001    0.0000    0.0000 C   0  0  0  0  0  0  0  0  0  0  0  0
    0.8000   -1.3856    0.0000 C   0  0  0  0  0  0  0  0  0  0  0  0
    2.4000   -1.3856    0.0000 C   0  0  0  0  0  0  0  0  0  0  0  0
    4.0000   -1.3856    0.0000 H   0  0  0  0  0  0  0  0  0  0  0  0
    3.2001   -2.7713    0.0000 H   0  0  0  0  0  0  0  0  0  0  0  0
    3.2001    0.0000    0.0000 H   0  0  0  0  0  0  0  0  0  0  0  0
   -0.0001   -2.7713    0.0000 C   0  0  0  0  0  0  0  0  0  0  0  0
    0.8000   -4.1569    0.0000 H   0  0  0  0  0  0  0  0  0  0  0  0
   -1.6001   -2.7713    0.0000 C   0  0  0  0  0  0  0  0  0  0  0  0
   -2.4000   -4.1569    0.0000 H   0  0  0  0  0  0  0  0  0  0  0  0
   -2.4000   -1.3856    0.0000 C   0  0  0  0  0  0  0  0  0  0  0  0
   -4.0000   -1.3856    0.0000 H   0  0  0  0  0  0  0  0  0  0  0  0
   -1.6001    0.0000    0.0000 C   0  0  0  0  0  0  0  0  0  0  0  0
   -2.4000    1.3856    0.0000 C   0  0  0  0  0  0  0  0  0  0  0  0
   -3.1999    2.7713    0.0000 H   0  0  0  0  0  0  0  0  0  0  0  0
   -4.0000    1.3856    0.0000 H   0  0  0  0  0  0  0  0  0  0  0  0
   -1.5999    2.7713    0.0000 H   0  0  0  0  0  0  0  0  0  0  0  0
    2.4000    1.3856    0.0000 C   0  0  0  0  0  0  0  0  0  0  0  0
    3.1999    2.7713    0.0000 H   0  0  0  0  0  0  0  0  0  0  0  0
    4.0000    1.3856    0.0000 H   0  0  0  0  0  0  0  0  0  0  0  0
    1.5999    2.7713    0.0000 H   0  0  0  0  0  0  0  0  0  0  0  0
  1  2  1  0  0  0  0
  2  3  1  0  0  0  0
  3  4  1  0  0  0  0
  4  5  1  0  0  0  0
  4  6  1  0  0  0  0
  4  7  1  0  0  0  0
  3  8  2  0  0  0  0
  8  9  1  0  0  0  0
  8 10  1  0  0  0  0
 10 11  1  0  0  0  0
 10 12  2  0  0  0  0
 12 13  1  0  0  0  0
 12 14  1  0  0  0  0
 14  2  2  0  0  0  0
 14 15  1  0  0  0  0
 15 16  1  0  0  0  0
 15 17  1  0  0  0  0
 15 18  1  0  0  0  0
  1 19  1  0  0  0  0
 19 20  1  0  0  0  0
 19 21  1  0  0  0  0
 19 22  1  0  0  0  0
M  END
> <ChemID>
103610

> <source_casrn>
1004-66-6

> <CAS>
1004-66-6

> <SMILES>
COc1c(C)cccc1C

> <NAME>
2,6-DIMETHYLANISOLE

> <preferred_name>
2,6-Dimethylanisole

> <iupac>
2-methoxy-1,3-dimethylbenzene

> <MPID>
22562

> <dsstox_substance_id>
DTXSID40143248

> <Canonical_QSARr>
COc1c(C)cccc1C

> <InChI_Code_QSARr>
InChI=1S/C9H12O/c1-7-5-4-6-8(2)9(7)10-3/h4-6H,1-3H3

> <InChI Key_QSARr>
GFNZJAUVJCGWLW-UHFFFAOYSA-N

> <Salt_Solvent>
?

> <BP>
182.5

$$$$
103614
  -INDIGO-08031720192D

 23 23  0  0  0  0  0  0  0  0999 V2000
   -1.3856   -2.4000    0.0000 O   0  0  0  0  0  0  0  0  0  0  0  0
   -1.3856   -0.8000    0.0000 C   0  0  0  0  0  0  0  0  0  0  0  0
    0.0001   -0.0000    0.0000 C   0  0  0  0  0  0  0  0  0  0  0  0
    0.6122    1.4782    0.0000 H   0  0  0  0  0  0  0  0  0  0  0  0
   -0.6122    1.4782    0.0000 H   0  0  0  0  0  0  0  0  0  0  0  0
    1.3856   -0.8000    0.0000 C   0  0  0  0  0  0  0  0  0  0  0  0
    2.7712   -0.0000    0.0000 C   0  0  0  0  0  0  0  0  0  0  0  0
    2.7712    1.6000    0.0000 H   0  0  0  0  0  0  0  0  0  0  0  0
    4.1569   -0.8000    0.0000 C   0  0  0  0  0  0  0  0  0  0  0  0
    5.5426   -0.0000    0.0000 H   0  0  0  0  0  0  0  0  0  0  0  0
    4.1569   -2.4000    0.0000 C   0  0  0  0  0  0  0  0  0  0  0  0
    5.5426   -3.2000    0.0000 H   0  0  0  0  0  0  0  0  0  0  0  0
    2.7712   -3.2000    0.0000 C   0  0  0  0  0  0  0  0  0  0  0  0
    2.7712   -4.8000    0.0000 H   0  0  0  0  0  0  0  0  0  0  0  0
    1.3856   -2.4000    0.0000 C   0  0  0  0  0  0  0  0  0  0  0  0
    0.0001   -3.2000    0.0000 H   0  0  0  0  0  0  0  0  0  0  0  0
   -2.7712   -0.0000    0.0000 C   0  0  0  0  0  0  0  0  0  0  0  0
   -2.1589    1.4782    0.0000 H   0  0  0  0  0  0  0  0  0  0  0  0
   -3.3836    1.4782    0.0000 H   0  0  0  0  0  0  0  0  0  0  0  0
   -4.1569   -0.8000    0.0000 C   0  0  0  0  0  0  0  0  0  0  0  0
   -5.5426   -1.6000    0.0000 H   0  0  0  0  0  0  0  0  0  0  0  0
   -5.5426   -0.0000    0.0000 H   0  0  0  0  0  0  0  0  0  0  0  0
   -4.1569   -2.4000    0.0000 H   0  0  0  0  0  0  0  0  0  0  0  0
  1  2  2  0  0  0  0
  2  3  1  0  0  0  0
  3  4  1  0  0  0  0
  3  5  1  0  0  0  0
  3  6  1  0  0  0  0
  6  7  1  0  0  0  0
  7  8  1  0  0  0  0
  7  9  2  0  0  0  0
  9 10  1  0  0  0  0
  9 11  1  0  0  0  0
 11 12  1  0  0  0  0
 11 13  2  0  0  0  0
 13 14  1  0  0  0  0
 13 15  1  0  0  0  0
 15  6  2  0  0  0  0
 15 16  1  0  0  0  0
  2 17  1  0  0  0  0
 17 18  1  0  0  0  0
 17 19  1  0  0  0  0
 17 20  1  0  0  0  0
 20 21  1  0  0  0  0
 20 22  1  0  0  0  0
 20 23  1  0  0  0  0
M  END
> <ChemID>
103614

> <source_casrn>
1007-32-5

> <CAS>
1007-32-5

> <SMILES>
CCC(=O)Cc1ccccc1

> <NAME>
1-PHENYL-2-BUTANONE

> <preferred_name>
1-Phenyl-2-butanone

> <iupac>
1-Phenylbutan-2-one

> <MPID>
22566

> <dsstox_substance_id>
DTXSID60143462

> <Canonical_QSARr>
CCC(=O)Cc1ccccc1

> <InChI_Code_QSARr>
InChI=1S/C10H12O/c1-2-10(11)8-9-6-4-3-5-7-9/h3-7H,2,8H2,1H3

> <InChI Key_QSARr>
GKDLTXYXODKDEA-UHFFFAOYSA-N

> <Salt_Solvent>
?

> <BP>
230.0

$$$$
103618
  -INDIGO-08031720192D

 26 26  0  0  0  0  0  0  0  0999 V2000
   -4.1569   -0.8000    0.0000 C   0  0  0  0  0  0  0  0  0  0  0  0
   -2.7712   -0.0000    0.0000 C   0  0  0  0  0  0  0  0  0  0  0  0
   -2.7712    1.6000    0.0000 O   0  0  0  0  0  0  0  0  0  0  0  0
   -1.3857   -0.8000    0.0000 C   0  0  0  0  0  0  0  0  0  0  0  0
   -1.9979   -2.2782    0.0000 H   0  0  0  0  0  0  0  0  0  0  0  0
   -0.7733   -2.2782    0.0000 H   0  0  0  0  0  0  0  0  0  0  0  0
    0.0000   -0.0000    0.0000 C   0  0  0  0  0  0  0  0  0  0  0  0
    0.6124    1.4782    0.0000 H   0  0  0  0  0  0  0  0  0  0  0  0
   -0.6124    1.4782    0.0000 H   0  0  0  0  0  0  0  0  0  0  0  0
    1.3857   -0.8000    0.0000 C   0  0  0  0  0  0  0  0  0  0  0  0
    0.7733   -2.2782    0.0000 H   0  0  0  0  0  0  0  0  0  0  0  0
    1.9979   -2.2782    0.0000 H   0  0  0  0  0  0  0  0  0  0  0  0
    2.7712   -0.0000    0.0000 C   0  0  0  0  0  0  0  0  0  0  0  0
    4.1569    0.8000    0.0000 H   0  0  0  0  0  0  0  0  0  0  0  0
    4.1569   -0.8000    0.0000 H   0  0  0  0  0  0  0  0  0  0  0  0
    2.7712    1.6000    0.0000 H   0  0  0  0  0  0  0  0  0  0  0  0
   -4.1569   -2.4000    0.0000 C   0  0  0  0  0  0  0  0  0  0  0  0
   -2.7712   -3.2000    0.0000 H   0  0  0  0  0  0  0  0  0  0  0  0
   -5.5426   -3.2000    0.0000 C   0  0  0  0  0  0  0  0  0  0  0  0
   -5.5426   -4.8000    0.0000 H   0  0  0  0  0  0  0  0  0  0  0  0
   -6.9281   -2.4000    0.0000 C   0  0  0  0  0  0  0  0  0  0  0  0
   -8.3138   -3.2000    0.0000 H   0  0  0  0  0  0  0  0  0  0  0  0
   -6.9281   -0.8000    0.0000 C   0  0  0  0  0  0  0  0  0  0  0  0
   -8.3138   -0.0000    0.0000 H   0  0  0  0  0  0  0  0  0  0  0  0
   -5.5426   -0.0000    0.0000 C   0  0  0  0  0  0  0  0  0  0  0  0
   -5.5426    1.6000    0.0000 H   0  0  0  0  0  0  0  0  0  0  0  0
  1  2  1  0  0  0  0
  2  3  2  0  0  0  0
  2  4  1  0  0  0  0
  4  5  1  0  0  0  0
  4  6  1  0  0  0  0
  4  7  1  0  0  0  0
  7  8  1  0  0  0  0
  7  9  1  0  0  0  0
  7 10  1  0  0  0  0
 10 11  1  0  0  0  0
 10 12  1  0  0  0  0
 10 13  1  0  0  0  0
 13 14  1  0  0  0  0
 13 15  1  0  0  0  0
 13 16  1  0  0  0  0
  1 17  1  0  0  0  0
 17 18  1  0  0  0  0
 17 19  2  0  0  0  0
 19 20  1  0  0  0  0
 19 21  1  0  0  0  0
 21 22  1  0  0  0  0
 21 23  2  0  0  0  0
 23 24  1  0  0  0  0
 23 25  1  0  0  0  0
 25  1  2  0  0  0  0
 25 26  1  0  0  0  0
M  END
> <ChemID>
103618

> <source_casrn>
1009-14-9

> <CAS>
1009-14-9

> <SMILES>
CCCCC(=O)c1ccccc1

> <NAME>
1-Pentanone, 1-phenyl-

> <preferred_name>
1-Pentanone, 1-phenyl-

> <iupac>
1-phenylpentan-1-one

> <MPID>
22570

> <dsstox_substance_id>
DTXSID0061406

> <Canonical_QSARr>
CCCCC(=O)c1ccccc1

> <InChI_Code_QSARr>
InChI=1S/C11H14O/c1-2-3-9-11(12)10-7-5-4-6-8-10/h4-8H,2-3,9H2,1H3

> <InChI Key_QSARr>
XKGLSKVNOSHTAD-UHFFFAOYSA-N

> <Salt_Solvent>
?

> <BP>
245.0

$$$$
103623
  -INDIGO-08031720192D

 44 44  0  0  0  0  0  0  0  0999 V2000
   -0.8001    1.3857    0.0000 N   0  0  0  0  0  0  0  0  0  0  0  0
    0.1740    2.6551    0.0000 H   0  0  0  0  0  0  0  0  0  0  0  0
   -2.3454    1.7997    0.0000 Si  0  0  0  0  0  0  0  0  0  0  0  0
   -1.5455    3.1855    0.0000 C   0  0  0  0  0  0  0  0  0  0  0  0
   -0.7455    4.5710    0.0000 H   0  0  0  0  0  0  0  0  0  0  0  0
   -2.3454    4.5710    0.0000 H   0  0  0  0  0  0  0  0  0  0  0  0
   -0.0420    3.7326    0.0000 H   0  0  0  0  0  0  0  0  0  0  0  0
   -3.4769    2.9312    0.0000 C   0  0  0  0  0  0  0  0  0  0  0  0
   -4.6082    4.0625    0.0000 H   0  0  0  0  0  0  0  0  0  0  0  0
   -3.3373    4.5251    0.0000 H   0  0  0  0  0  0  0  0  0  0  0  0
   -5.0708    3.0706    0.0000 H   0  0  0  0  0  0  0  0  0  0  0  0
   -3.7312    0.9997    0.0000 N   0  0  0  0  0  0  0  0  0  0  0  0
   -5.0005    1.9737    0.0000 H   0  0  0  0  0  0  0  0  0  0  0  0
   -4.1452   -0.5457    0.0000 Si  0  0  0  0  0  0  0  0  0  0  0  0
   -5.5309    0.2542    0.0000 C   0  0  0  0  0  0  0  0  0  0  0  0
   -6.9165   -0.5457    0.0000 H   0  0  0  0  0  0  0  0  0  0  0  0
   -6.9165    1.0542    0.0000 H   0  0  0  0  0  0  0  0  0  0  0  0
   -6.0780    1.7578    0.0000 H   0  0  0  0  0  0  0  0  0  0  0  0
   -5.2767   -1.6771    0.0000 C   0  0  0  0  0  0  0  0  0  0  0  0
   -6.4080   -2.8085    0.0000 H   0  0  0  0  0  0  0  0  0  0  0  0
   -5.4161   -3.2710    0.0000 H   0  0  0  0  0  0  0  0  0  0  0  0
   -6.8705   -1.5376    0.0000 H   0  0  0  0  0  0  0  0  0  0  0  0
   -3.3452   -1.9314    0.0000 N   0  0  0  0  0  0  0  0  0  0  0  0
   -4.3192   -3.2008    0.0000 H   0  0  0  0  0  0  0  0  0  0  0  0
   -1.7998   -2.3455    0.0000 Si  0  0  0  0  0  0  0  0  0  0  0  0
   -2.5997   -3.7312    0.0000 C   0  0  0  0  0  0  0  0  0  0  0  0
   -4.1032   -4.2783    0.0000 H   0  0  0  0  0  0  0  0  0  0  0  0
   -3.3997   -5.1168    0.0000 H   0  0  0  0  0  0  0  0  0  0  0  0
   -1.7998   -5.1168    0.0000 H   0  0  0  0  0  0  0  0  0  0  0  0
   -0.6683   -3.4768    0.0000 C   0  0  0  0  0  0  0  0  0  0  0  0
    0.4630   -4.6082    0.0000 H   0  0  0  0  0  0  0  0  0  0  0  0
   -0.8079   -5.0708    0.0000 H   0  0  0  0  0  0  0  0  0  0  0  0
    0.9255   -3.6163    0.0000 H   0  0  0  0  0  0  0  0  0  0  0  0
   -0.4141   -1.5454    0.0000 N   0  0  0  0  0  0  0  0  0  0  0  0
    0.8553   -2.5195    0.0000 H   0  0  0  0  0  0  0  0  0  0  0  0
   -0.0000   -0.0001    0.0000 Si  0  0  0  0  0  0  0  0  0  0  0  0
    1.3857   -0.7999    0.0000 C   0  0  0  0  0  0  0  0  0  0  0  0
    2.7713   -1.6000    0.0000 H   0  0  0  0  0  0  0  0  0  0  0  0
    2.7713   -0.0001    0.0000 H   0  0  0  0  0  0  0  0  0  0  0  0
    1.9328   -2.3035    0.0000 H   0  0  0  0  0  0  0  0  0  0  0  0
    1.1313    1.1314    0.0000 C   0  0  0  0  0  0  0  0  0  0  0  0
    2.2628    2.2627    0.0000 H   0  0  0  0  0  0  0  0  0  0  0  0
    1.2708    2.7253    0.0000 H   0  0  0  0  0  0  0  0  0  0  0  0
    2.7253    0.9919    0.0000 H   0  0  0  0  0  0  0  0  0  0  0  0
  1  2  1  0  0  0  0
  1  3  1  0  0  0  0
  3  4  1  0  0  0  0
  4  5  1  0  0  0  0
  4  6  1  0  0  0  0
  4  7  1  0  0  0  0
  3  8  1  0  0  0  0
  8  9  1  0  0  0  0
  8 10  1  0  0  0  0
  8 11  1  0  0  0  0
  3 12  1  0  0  0  0
 12 13  1  0  0  0  0
 12 14  1  0  0  0  0
 14 15  1  0  0  0  0
 15 16  1  0  0  0  0
 15 17  1  0  0  0  0
 15 18  1  0  0  0  0
 14 19  1  0  0  0  0
 19 20  1  0  0  0  0
 19 21  1  0  0  0  0
 19 22  1  0  0  0  0
 14 23  1  0  0  0  0
 23 24  1  0  0  0  0
 23 25  1  0  0  0  0
 25 26  1  0  0  0  0
 26 27  1  0  0  0  0
 26 28  1  0  0  0  0
 26 29  1  0  0  0  0
 25 30  1  0  0  0  0
 30 31  1  0  0  0  0
 30 32  1  0  0  0  0
 30 33  1  0  0  0  0
 25 34  1  0  0  0  0
 34 35  1  0  0  0  0
 34 36  1  0  0  0  0
 36  1  1  0  0  0  0
 36 37  1  0  0  0  0
 37 38  1  0  0  0  0
 37 39  1  0  0  0  0
 37 40  1  0  0  0  0
 36 41  1  0  0  0  0
 41 42  1  0  0  0  0
 41 43  1  0  0  0  0
 41 44  1  0  0  0  0
M  END
> <ChemID>
103623

> <source_casrn>
1020-84-4

> <CAS>
1020-84-4

> <SMILES>
C[Si]1(C)N[Si](C)(C)N[Si](C)(C)N[Si](C)(C)N1

> <NAME>
Cyclotetrasilazane, 2,2,4,4,6,6,8,8-octamethyl-

> <preferred_name>
2,2,4,4,6,6,8,8-Octamethylcyclotetrasilazane

> <iupac>
2,2,4,4,6,6,8,8-octamethyl-1,3,5,7,2,4,6,8-tetrazatetrasilocane

> <MPID>
22574

> <dsstox_substance_id>
DTXSID1051511

> <Canonical_QSARr>
C[Si]1(C)N[Si](C)(C)N[Si](C)(C)N[Si](C)(C)N1

> <InChI_Code_QSARr>
InChI=1S/C8H28N4Si4/c1-13(2)9-14(3,4)11-16(7,8)12-15(5,6)10-13/h9-12H,1-8H3

> <InChI Key_QSARr>
FIADVASZMLCQIF-UHFFFAOYSA-N

> <Salt_Solvent>
?

> <BP>
225.0

$$$$
103629
  -INDIGO-08031720192D

 29 28  0  0  0  0  0  0  0  0999 V2000
   -0.0001    0.0000    0.0000 C   0  0  0  0  0  0  0  0  0  0  0  0
    0.7999   -1.3857    0.0000 H   0  0  0  0  0  0  0  0  0  0  0  0
    1.5035    0.5472    0.0000 C   0  0  0  0  0  0  0  0  0  0  0  0
    1.5035    2.1472    0.0000 H   0  0  0  0  0  0  0  0  0  0  0  0
    2.8891    1.3472    0.0000 C   0  0  0  0  0  0  0  0  0  0  0  0
    4.2748    2.1472    0.0000 H   0  0  0  0  0  0  0  0  0  0  0  0
    2.8891    2.9472    0.0000 H   0  0  0  0  0  0  0  0  0  0  0  0
    4.2748    0.5472    0.0000 H   0  0  0  0  0  0  0  0  0  0  0  0
    2.0508   -0.9563    0.0000 C   0  0  0  0  0  0  0  0  0  0  0  0
    2.5980   -2.4598    0.0000 H   0  0  0  0  0  0  0  0  0  0  0  0
    3.6265   -1.2341    0.0000 H   0  0  0  0  0  0  0  0  0  0  0  0
    3.0792    0.2694    0.0000 H   0  0  0  0  0  0  0  0  0  0  0  0
   -1.3856   -0.8000    0.0000 C   0  0  0  0  0  0  0  0  0  0  0  0
   -2.4141    0.4257    0.0000 H   0  0  0  0  0  0  0  0  0  0  0  0
   -2.7713   -1.6000    0.0000 C   0  0  0  0  0  0  0  0  0  0  0  0
   -4.1569   -2.4000    0.0000 H   0  0  0  0  0  0  0  0  0  0  0  0
   -2.7713   -3.2000    0.0000 H   0  0  0  0  0  0  0  0  0  0  0  0
   -4.1569   -0.8000    0.0000 H   0  0  0  0  0  0  0  0  0  0  0  0
   -0.8384   -2.3035    0.0000 C   0  0  0  0  0  0  0  0  0  0  0  0
   -0.2912   -3.8070    0.0000 H   0  0  0  0  0  0  0  0  0  0  0  0
   -1.8669   -3.5292    0.0000 H   0  0  0  0  0  0  0  0  0  0  0  0
    0.7373   -2.5814    0.0000 H   0  0  0  0  0  0  0  0  0  0  0  0
   -0.8001    1.3856    0.0000 C   0  0  0  0  0  0  0  0  0  0  0  0
    0.4694    2.3597    0.0000 H   0  0  0  0  0  0  0  0  0  0  0  0
   -0.5911    2.9720    0.0000 H   0  0  0  0  0  0  0  0  0  0  0  0
   -2.3999    1.3856    0.0000 C   0  0  0  0  0  0  0  0  0  0  0  0
   -3.2000    2.7713    0.0000 H   0  0  0  0  0  0  0  0  0  0  0  0
   -4.0000    1.3856    0.0000 H   0  0  0  0  0  0  0  0  0  0  0  0
   -1.5999    2.7713    0.0000 H   0  0  0  0  0  0  0  0  0  0  0  0
  1  2  1  0  0  0  0
  1  3  1  0  0  0  0
  3  4  1  0  0  0  0
  3  5  1  0  0  0  0
  5  6  1  0  0  0  0
  5  7  1  0  0  0  0
  5  8  1  0  0  0  0
  3  9  1  0  0  0  0
  9 10  1  0  0  0  0
  9 11  1  0  0  0  0
  9 12  1  0  0  0  0
  1 13  1  0  0  0  0
 13 14  1  0  0  0  0
 13 15  1  0  0  0  0
 15 16  1  0  0  0  0
 15 17  1  0  0  0  0
 15 18  1  0  0  0  0
 13 19  1  0  0  0  0
 19 20  1  0  0  0  0
 19 21  1  0  0  0  0
 19 22  1  0  0  0  0
  1 23  1  0  0  0  0
 23 24  1  0  0  0  0
 23 25  1  0  0  0  0
 23 26  1  0  0  0  0
 26 27  1  0  0  0  0
 26 28  1  0  0  0  0
 26 29  1  0  0  0  0
M  END
> <ChemID>
103629

> <source_casrn>
1068-87-7

> <CAS>
1068-87-7

> <SMILES>
CCC(C(C)C)C(C)C

> <NAME>
2,4-DIMETHYL-3-ETHYLPENTANE

> <preferred_name>
3-Ethyl-2,4-dimethylpentane

> <iupac>
3-Ethyl-2,4-dimethylpentane

> <MPID>
22578

> <dsstox_substance_id>
DTXSID10147778

> <Canonical_QSARr>
CCC(C(C)C)C(C)C

> <InChI_Code_QSARr>
InChI=1S/C9H20/c1-6-9(7(2)3)8(4)5/h7-9H,6H2,1-5H3

> <InChI Key_QSARr>
VLHAGZNBWKUMRW-UHFFFAOYSA-N

> <Salt_Solvent>
?

> <BP>
136.7

$$$$
103633
  -INDIGO-08031720192D

 29 28  0  0  0  0  0  0  0  0999 V2000
    0.0000    0.0000    0.0000 C   0  0  0  0  0  0  0  0  0  0  0  0
    1.3857   -0.8000    0.0000 C   0  0  0  0  0  0  0  0  0  0  0  0
    1.9980   -2.2782    0.0000 H   0  0  0  0  0  0  0  0  0  0  0  0
    0.7734   -2.2782    0.0000 H   0  0  0  0  0  0  0  0  0  0  0  0
    2.8891   -0.2528    0.0000 C   0  0  0  0  0  0  0  0  0  0  0  0
    4.4649    0.0251    0.0000 C   0  0  0  0  0  0  0  0  0  0  0  0
    6.0405    0.3029    0.0000 H   0  0  0  0  0  0  0  0  0  0  0  0
    5.4933   -1.2006    0.0000 H   0  0  0  0  0  0  0  0  0  0  0  0
    5.0120    1.5285    0.0000 H   0  0  0  0  0  0  0  0  0  0  0  0
    3.4364   -1.7563    0.0000 C   0  0  0  0  0  0  0  0  0  0  0  0
    3.9836   -3.2598    0.0000 H   0  0  0  0  0  0  0  0  0  0  0  0
    2.6363   -3.1419    0.0000 H   0  0  0  0  0  0  0  0  0  0  0  0
    5.0120   -2.0342    0.0000 H   0  0  0  0  0  0  0  0  0  0  0  0
    2.3419    1.2507    0.0000 C   0  0  0  0  0  0  0  0  0  0  0  0
    3.3704    2.4764    0.0000 H   0  0  0  0  0  0  0  0  0  0  0  0
    3.9176    0.9729    0.0000 H   0  0  0  0  0  0  0  0  0  0  0  0
    1.1162    0.2223    0.0000 H   0  0  0  0  0  0  0  0  0  0  0  0
   -1.5034    0.5472    0.0000 C   0  0  0  0  0  0  0  0  0  0  0  0
   -3.0070    1.0944    0.0000 H   0  0  0  0  0  0  0  0  0  0  0  0
   -2.7292   -0.4813    0.0000 H   0  0  0  0  0  0  0  0  0  0  0  0
   -1.7813    2.1229    0.0000 H   0  0  0  0  0  0  0  0  0  0  0  0
    0.8000    1.3856    0.0000 C   0  0  0  0  0  0  0  0  0  0  0  0
    1.5999    2.7713    0.0000 H   0  0  0  0  0  0  0  0  0  0  0  0
    0.0000    2.7713    0.0000 H   0  0  0  0  0  0  0  0  0  0  0  0
   -0.8000    1.3856    0.0000 H   0  0  0  0  0  0  0  0  0  0  0  0
   -0.8000   -1.3856    0.0000 C   0  0  0  0  0  0  0  0  0  0  0  0
   -1.5999   -2.7713    0.0000 H   0  0  0  0  0  0  0  0  0  0  0  0
   -0.2528   -2.8892    0.0000 H   0  0  0  0  0  0  0  0  0  0  0  0
   -2.4000   -1.3856    0.0000 H   0  0  0  0  0  0  0  0  0  0  0  0
  1  2  1  0  0  0  0
  2  3  1  0  0  0  0
  2  4  1  0  0  0  0
  2  5  1  0  0  0  0
  5  6  1  0  0  0  0
  6  7  1  0  0  0  0
  6  8  1  0  0  0  0
  6  9  1  0  0  0  0
  5 10  1  0  0  0  0
 10 11  1  0  0  0  0
 10 12  1  0  0  0  0
 10 13  1  0  0  0  0
  5 14  1  0  0  0  0
 14 15  1  0  0  0  0
 14 16  1  0  0  0  0
 14 17  1  0  0  0  0
  1 18  1  0  0  0  0
 18 19  1  0  0  0  0
 18 20  1  0  0  0  0
 18 21  1  0  0  0  0
  1 22  1  0  0  0  0
 22 23  1  0  0  0  0
 22 24  1  0  0  0  0
 22 25  1  0  0  0  0
  1 26  1  0  0  0  0
 26 27  1  0  0  0  0
 26 28  1  0  0  0  0
 26 29  1  0  0  0  0
M  END
> <ChemID>
103633

> <source_casrn>
1070-87-7

> <CAS>
1070-87-7

> <SMILES>
CC(C)(C)CC(C)(C)C

> <NAME>
2,2,4,4-TETRAMETHYLPENTANE

> <preferred_name>
Pentane, 2,2,4,4-tetramethyl- (8CI)(9CI)

> <iupac>
2,2,4,4-Tetramethylpentane

> <MPID>
22582

> <dsstox_substance_id>
DTXSID70147870

> <Canonical_QSARr>
CC(C)(C)CC(C)(C)C

> <InChI_Code_QSARr>
InChI=1S/C9H20/c1-8(2,3)7-9(4,5)6/h7H2,1-6H3

> <InChI Key_QSARr>
GUMULFRCHLJNDY-UHFFFAOYSA-N

> <Salt_Solvent>
?

> <BP>
122.2

$$$$
103637
  -INDIGO-08031720192D

 32 31  0  0  0  0  0  0  0  0999 V2000
   -0.0000    0.0000    0.0000 C   0  0  0  0  0  0  0  0  0  0  0  0
    1.3857   -0.8000    0.0000 C   0  0  0  0  0  0  0  0  0  0  0  0
    1.1767   -2.3863    0.0000 H   0  0  0  0  0  0  0  0  0  0  0  0
    0.1163   -1.7740    0.0000 H   0  0  0  0  0  0  0  0  0  0  0  0
    2.9613   -1.0778    0.0000 C   0  0  0  0  0  0  0  0  0  0  0  0
    2.3490   -2.5561    0.0000 H   0  0  0  0  0  0  0  0  0  0  0  0
    3.5737   -2.5561    0.0000 H   0  0  0  0  0  0  0  0  0  0  0  0
    4.5613   -1.0778    0.0000 C   0  0  0  0  0  0  0  0  0  0  0  0
    6.1614   -1.0778    0.0000 C   0  0  0  0  0  0  0  0  0  0  0  0
    7.7613   -1.0778    0.0000 H   0  0  0  0  0  0  0  0  0  0  0  0
    6.9613   -2.4634    0.0000 H   0  0  0  0  0  0  0  0  0  0  0  0
    6.9613    0.3078    0.0000 H   0  0  0  0  0  0  0  0  0  0  0  0
    4.5613   -2.6779    0.0000 C   0  0  0  0  0  0  0  0  0  0  0  0
    4.5613   -4.2778    0.0000 H   0  0  0  0  0  0  0  0  0  0  0  0
    5.9470   -3.4779    0.0000 H   0  0  0  0  0  0  0  0  0  0  0  0
    3.1757   -3.4779    0.0000 H   0  0  0  0  0  0  0  0  0  0  0  0
    4.8392    0.4979    0.0000 C   0  0  0  0  0  0  0  0  0  0  0  0
    4.8392    2.0978    0.0000 H   0  0  0  0  0  0  0  0  0  0  0  0
    6.2249    1.2978    0.0000 H   0  0  0  0  0  0  0  0  0  0  0  0
    3.3357    1.0451    0.0000 H   0  0  0  0  0  0  0  0  0  0  0  0
   -1.3856    0.8000    0.0000 C   0  0  0  0  0  0  0  0  0  0  0  0
   -2.7713    1.6000    0.0000 H   0  0  0  0  0  0  0  0  0  0  0  0
   -2.7713    0.0000    0.0000 H   0  0  0  0  0  0  0  0  0  0  0  0
   -1.3856    2.4000    0.0000 H   0  0  0  0  0  0  0  0  0  0  0  0
    0.8000    1.3857    0.0000 C   0  0  0  0  0  0  0  0  0  0  0  0
    1.8284    2.6113    0.0000 H   0  0  0  0  0  0  0  0  0  0  0  0
    2.3035    0.8384    0.0000 H   0  0  0  0  0  0  0  0  0  0  0  0
    0.2528    2.8891    0.0000 H   0  0  0  0  0  0  0  0  0  0  0  0
   -0.7999   -1.3857    0.0000 C   0  0  0  0  0  0  0  0  0  0  0  0
   -1.6000   -2.7713    0.0000 H   0  0  0  0  0  0  0  0  0  0  0  0
   -0.0000   -2.7713    0.0000 H   0  0  0  0  0  0  0  0  0  0  0  0
   -2.4000   -1.3857    0.0000 H   0  0  0  0  0  0  0  0  0  0  0  0
  1  2  1  0  0  0  0
  2  3  1  0  0  0  0
  2  4  1  0  0  0  0
  2  5  1  0  0  0  0
  5  6  1  0  0  0  0
  5  7  1  0  0  0  0
  5  8  1  0  0  0  0
  8  9  1  0  0  0  0
  9 10  1  0  0  0  0
  9 11  1  0  0  0  0
  9 12  1  0  0  0  0
  8 13  1  0  0  0  0
 13 14  1  0  0  0  0
 13 15  1  0  0  0  0
 13 16  1  0  0  0  0
  8 17  1  0  0  0  0
 17 18  1  0  0  0  0
 17 19  1  0  0  0  0
 17 20  1  0  0  0  0
  1 21  1  0  0  0  0
 21 22  1  0  0  0  0
 21 23  1  0  0  0  0
 21 24  1  0  0  0  0
  1 25  1  0  0  0  0
 25 26  1  0  0  0  0
 25 27  1  0  0  0  0
 25 28  1  0  0  0  0
  1 29  1  0  0  0  0
 29 30  1  0  0  0  0
 29 31  1  0  0  0  0
 29 32  1  0  0  0  0
M  END
> <ChemID>
103637

> <source_casrn>
1071-81-4

> <CAS>
1071-81-4

> <SMILES>
CC(C)(C)CCC(C)(C)C

> <NAME>
2,2,5,5-TETRAMETHYLHEXANE

> <preferred_name>
2,2,5,5-Tetramethylhexane

> <iupac>
2,2,5,5-TETRAMETHYLHEXANE

> <MPID>
22586

> <dsstox_substance_id>
DTXSID90147918

> <Canonical_QSARr>
CC(C)(C)CCC(C)(C)C

> <InChI_Code_QSARr>
InChI=1S/C10H22/c1-9(2,3)7-8-10(4,5)6/h7-8H2,1-6H3

> <InChI Key_QSARr>
HXQDUXXBVMMIKL-UHFFFAOYSA-N

> <Salt_Solvent>
?

> <BP>
137.4

$$$$
103641
  -INDIGO-08031720192D

 11 11  0  0  0  0  0  0  0  0999 V2000
   -1.3856   -0.8000    0.0000 N   0  0  0  0  0  0  0  0  0  0  0  0
   -0.0000   -1.6000    0.0000 C   0  0  0  0  0  0  0  0  0  0  0  0
   -0.5472   -3.1035    0.0000 H   0  0  0  0  0  0  0  0  0  0  0  0
    1.5757   -1.8779    0.0000 H   0  0  0  0  0  0  0  0  0  0  0  0
   -0.0000    0.0000    0.0000 C   0  0  0  0  0  0  0  0  0  0  0  0
    1.5757    0.2779    0.0000 H   0  0  0  0  0  0  0  0  0  0  0  0
   -0.5472    1.5035    0.0000 H   0  0  0  0  0  0  0  0  0  0  0  0
   -2.9857   -0.8000    0.0000 C   0  0  0  0  0  0  0  0  0  0  0  0
   -4.5856   -0.8000    0.0000 H   0  0  0  0  0  0  0  0  0  0  0  0
   -3.7857    0.5856    0.0000 H   0  0  0  0  0  0  0  0  0  0  0  0
   -3.7857   -2.1856    0.0000 H   0  0  0  0  0  0  0  0  0  0  0  0
  1  2  1  0  0  0  0
  2  3  1  0  0  0  0
  2  4  1  0  0  0  0
  2  5  1  0  0  0  0
  5  1  1  0  0  0  0
  5  6  1  0  0  0  0
  5  7  1  0  0  0  0
  1  8  1  0  0  0  0
  8  9  1  0  0  0  0
  8 10  1  0  0  0  0
  8 11  1  0  0  0  0
M  END
> <ChemID>
103641

> <source_casrn>
1072-44-2

> <CAS>
1072-44-2

> <SMILES>
CN1CC1

> <NAME>
1-Methylaziridine

> <preferred_name>
Aziridine, 1-methyl-

> <iupac>
1-METHYLAZIRIDINE

> <MPID>
22590

> <dsstox_substance_id>
DTXSID60147940

> <Canonical_QSARr>
CN1CC1

> <InChI_Code_QSARr>
InChI=1S/C3H7N/c1-4-2-3-4/h2-3H2,1H3

> <InChI Key_QSARr>
XLJQPXVBQNJNLW-UHFFFAOYSA-N

> <Salt_Solvent>
?

> <BP>
27.5

$$$$
103645
  -INDIGO-08031720192D

 18 18  0  0  0  0  0  0  0  0999 V2000
    0.0000    1.6000    0.0000 N   0  0  0  0  0  0  0  0  0  0  0  0
    1.5217    2.0944    0.0000 N   0  0  0  0  0  0  0  0  0  0  0  0
    2.4621    0.8001    0.0000 C   0  0  0  0  0  0  0  0  0  0  0  0
    4.0621    0.7999    0.0000 C   0  0  0  0  0  0  0  0  0  0  0  0
    5.6621    0.7999    0.0000 H   0  0  0  0  0  0  0  0  0  0  0  0
    4.8621    2.1856    0.0000 H   0  0  0  0  0  0  0  0  0  0  0  0
    4.8621   -0.5856    0.0000 H   0  0  0  0  0  0  0  0  0  0  0  0
    1.5217   -0.4944    0.0000 C   0  0  0  0  0  0  0  0  0  0  0  0
    2.0161   -2.0161    0.0000 H   0  0  0  0  0  0  0  0  0  0  0  0
    0.0000   -0.0000    0.0000 C   0  0  0  0  0  0  0  0  0  0  0  0
   -1.2944   -0.9405    0.0000 C   0  0  0  0  0  0  0  0  0  0  0  0
   -2.5889   -1.8810    0.0000 H   0  0  0  0  0  0  0  0  0  0  0  0
   -1.1272   -2.5317    0.0000 H   0  0  0  0  0  0  0  0  0  0  0  0
   -2.7561   -0.2897    0.0000 H   0  0  0  0  0  0  0  0  0  0  0  0
   -1.2944    2.5405    0.0000 C   0  0  0  0  0  0  0  0  0  0  0  0
   -2.5889    3.4810    0.0000 H   0  0  0  0  0  0  0  0  0  0  0  0
   -1.1272    4.1317    0.0000 H   0  0  0  0  0  0  0  0  0  0  0  0
   -2.7561    1.8897    0.0000 H   0  0  0  0  0  0  0  0  0  0  0  0
  1  2  1  0  0  0  0
  2  3  2  0  0  0  0
  3  4  1  0  0  0  0
  4  5  1  0  0  0  0
  4  6  1  0  0  0  0
  4  7  1  0  0  0  0
  3  8  1  0  0  0  0
  8  9  1  0  0  0  0
  8 10  2  0  0  0  0
 10  1  1  0  0  0  0
 10 11  1  0  0  0  0
 11 12  1  0  0  0  0
 11 13  1  0  0  0  0
 11 14  1  0  0  0  0
  1 15  1  0  0  0  0
 15 16  1  0  0  0  0
 15 17  1  0  0  0  0
 15 18  1  0  0  0  0
M  END
> <ChemID>
103645

> <source_casrn>
1072-91-9

> <CAS>
1072-91-9

> <SMILES>
Cc1cc(C)[n][n]1C

> <NAME>
1H-PYRAZOLE, 1,3,5-TRIMETHYL-

> <preferred_name>
1,3,5-Trimethylpyrazole

> <iupac>
1,3,5-TRIMETHYLPYRAZOLE

> <MPID>
22594

> <dsstox_substance_id>
DTXSID70147951

> <Canonical_QSARr>
Cc1cc(C)[n][n]1C

> <InChI_Code_QSARr>
InChI=1S/C6H10N2/c1-5-4-6(2)8(3)7-5/h4H,1-3H3

> <InChI Key_QSARr>
HNOQAFMOBRWDKQ-UHFFFAOYSA-N

> <Salt_Solvent>
?

> <BP>
170.0

$$$$
103650
  -INDIGO-08031720192D

 24 24  0  0  0  0  0  0  0  0999 V2000
   -1.6000    0.0000    0.0000 C   0  0  0  0  0  0  0  0  0  0  0  0
   -2.4000    1.3857    0.0000 C   0  0  0  0  0  0  0  0  0  0  0  0
   -1.6000    2.7713    0.0000 C   0  0  0  0  0  0  0  0  0  0  0  0
   -0.8000    4.1569    0.0000 H   0  0  0  0  0  0  0  0  0  0  0  0
   -2.4000    4.1569    0.0000 H   0  0  0  0  0  0  0  0  0  0  0  0
   -0.0000    2.7713    0.0000 H   0  0  0  0  0  0  0  0  0  0  0  0
   -4.0001    1.3857    0.0000 C   0  0  0  0  0  0  0  0  0  0  0  0
   -4.8000    2.7713    0.0000 H   0  0  0  0  0  0  0  0  0  0  0  0
   -4.8000    0.0000    0.0000 C   0  0  0  0  0  0  0  0  0  0  0  0
   -6.4000    0.0000    0.0000 H   0  0  0  0  0  0  0  0  0  0  0  0
   -4.0001   -1.3856    0.0000 C   0  0  0  0  0  0  0  0  0  0  0  0
   -4.8000   -2.7713    0.0000 H   0  0  0  0  0  0  0  0  0  0  0  0
   -2.4000   -1.3856    0.0000 C   0  0  0  0  0  0  0  0  0  0  0  0
   -1.6000   -2.7713    0.0000 H   0  0  0  0  0  0  0  0  0  0  0  0
   -0.0000    0.0000    0.0000 C   0  0  0  0  0  0  0  0  0  0  0  0
    0.2088    1.5864    0.0000 H   0  0  0  0  0  0  0  0  0  0  0  0
    1.2694    0.9740    0.0000 H   0  0  0  0  0  0  0  0  0  0  0  0
    0.7999   -1.3856    0.0000 C   0  0  0  0  0  0  0  0  0  0  0  0
    0.5911   -2.9720    0.0000 H   0  0  0  0  0  0  0  0  0  0  0  0
   -0.4693   -2.3596    0.0000 H   0  0  0  0  0  0  0  0  0  0  0  0
    2.4000   -1.3856    0.0000 C   0  0  0  0  0  0  0  0  0  0  0  0
    4.0000   -1.3856    0.0000 H   0  0  0  0  0  0  0  0  0  0  0  0
    3.2000   -2.7713    0.0000 H   0  0  0  0  0  0  0  0  0  0  0  0
    3.2000    0.0000    0.0000 H   0  0  0  0  0  0  0  0  0  0  0  0
  1  2  1  0  0  0  0
  2  3  1  0  0  0  0
  3  4  1  0  0  0  0
  3  5  1  0  0  0  0
  3  6  1  0  0  0  0
  2  7  2  0  0  0  0
  7  8  1  0  0  0  0
  7  9  1  0  0  0  0
  9 10  1  0  0  0  0
  9 11  2  0  0  0  0
 11 12  1  0  0  0  0
 11 13  1  0  0  0  0
 13  1  2  0  0  0  0
 13 14  1  0  0  0  0
  1 15  1  0  0  0  0
 15 16  1  0  0  0  0
 15 17  1  0  0  0  0
 15 18  1  0  0  0  0
 18 19  1  0  0  0  0
 18 20  1  0  0  0  0
 18 21  1  0  0  0  0
 21 22  1  0  0  0  0
 21 23  1  0  0  0  0
 21 24  1  0  0  0  0
M  END
> <ChemID>
103650

> <source_casrn>
1074-17-5

> <CAS>
1074-17-5

> <SMILES>
Cc1ccccc1CCC

> <NAME>
1-METHYL-2-PROPYLBENZENE

> <preferred_name>
1-Methyl-2-propylbenzene

> <iupac>
1-Methyl-2-propylbenzene

> <MPID>
22598

> <dsstox_substance_id>
DTXSID4061466

> <Canonical_QSARr>
Cc1ccccc1CCC

> <InChI_Code_QSARr>
InChI=1S/C10H14/c1-3-6-10-8-5-4-7-9(10)2/h4-5,7-8H,3,6H2,1-2H3

> <InChI Key_QSARr>
YQZBFMJOASEONC-UHFFFAOYSA-N

> <Salt_Solvent>
?

> <BP>
185.0

$$$$
103654
  -INDIGO-08031720192D

 25 25  0  0  0  0  0  0  0  0999 V2000
    1.3856    0.8000    0.0000 C   0  0  0  0  0  0  0  0  0  0  0  0
    1.9979    2.2782    0.0000 H   0  0  0  0  0  0  0  0  0  0  0  0
    0.7734    2.2782    0.0000 H   0  0  0  0  0  0  0  0  0  0  0  0
    0.0001   -0.0000    0.0000 C   0  0  0  0  0  0  0  0  0  0  0  0
   -0.6123   -1.4782    0.0000 H   0  0  0  0  0  0  0  0  0  0  0  0
    0.6122   -1.4782    0.0000 H   0  0  0  0  0  0  0  0  0  0  0  0
   -1.3856    0.8000    0.0000 C   0  0  0  0  0  0  0  0  0  0  0  0
   -0.7733    2.2782    0.0000 H   0  0  0  0  0  0  0  0  0  0  0  0
   -1.9980    2.2782    0.0000 H   0  0  0  0  0  0  0  0  0  0  0  0
   -2.7713   -0.0000    0.0000 C   0  0  0  0  0  0  0  0  0  0  0  0
   -2.7713   -1.6000    0.0000 H   0  0  0  0  0  0  0  0  0  0  0  0
   -4.1569    0.8000    0.0000 C   0  0  0  0  0  0  0  0  0  0  0  0
   -5.5426   -0.0000    0.0000 H   0  0  0  0  0  0  0  0  0  0  0  0
   -4.1569    2.4000    0.0000 H   0  0  0  0  0  0  0  0  0  0  0  0
    2.7713   -0.0000    0.0000 C   0  0  0  0  0  0  0  0  0  0  0  0
    4.1570    0.8000    0.0000 C   0  0  0  0  0  0  0  0  0  0  0  0
    4.1570    2.4000    0.0000 H   0  0  0  0  0  0  0  0  0  0  0  0
    5.5425   -0.0000    0.0000 C   0  0  0  0  0  0  0  0  0  0  0  0
    6.9282    0.8000    0.0000 H   0  0  0  0  0  0  0  0  0  0  0  0
    5.5425   -1.6000    0.0000 C   0  0  0  0  0  0  0  0  0  0  0  0
    6.9282   -2.4000    0.0000 H   0  0  0  0  0  0  0  0  0  0  0  0
    4.1570   -2.4000    0.0000 C   0  0  0  0  0  0  0  0  0  0  0  0
    4.1570   -4.0000    0.0000 H   0  0  0  0  0  0  0  0  0  0  0  0
    2.7713   -1.6000    0.0000 C   0  0  0  0  0  0  0  0  0  0  0  0
    1.3856   -2.4000    0.0000 H   0  0  0  0  0  0  0  0  0  0  0  0
  1  2  1  0  0  0  0
  1  3  1  0  0  0  0
  1  4  1  0  0  0  0
  4  5  1  0  0  0  0
  4  6  1  0  0  0  0
  4  7  1  0  0  0  0
  7  8  1  0  0  0  0
  7  9  1  0  0  0  0
  7 10  1  0  0  0  0
 10 11  1  0  0  0  0
 10 12  2  0  0  0  0
 12 13  1  0  0  0  0
 12 14  1  0  0  0  0
  1 15  1  0  0  0  0
 15 16  1  0  0  0  0
 16 17  1  0  0  0  0
 16 18  2  0  0  0  0
 18 19  1  0  0  0  0
 18 20  1  0  0  0  0
 20 21  1  0  0  0  0
 20 22  2  0  0  0  0
 22 23  1  0  0  0  0
 22 24  1  0  0  0  0
 24 15  2  0  0  0  0
 24 25  1  0  0  0  0
M  END
> <ChemID>
103654

> <source_casrn>
1075-74-7

> <CAS>
1075-74-7

> <SMILES>
C=CCCCc1ccccc1

> <NAME>
BENZENE, 4-PENTENYL-

> <preferred_name>
5-Phenyl-1-pentene

> <iupac>
C11H14

> <MPID>
22602

> <dsstox_substance_id>
DTXSID00333744

> <Canonical_QSARr>
C=CCCCc1ccccc1

> <InChI_Code_QSARr>
InChI=1S/C11H14/c1-2-3-5-8-11-9-6-4-7-10-11/h2,4,6-7,9-10H,1,3,5,8H2

> <InChI Key_QSARr>
RURREWSZSUQSNB-UHFFFAOYSA-N

> <Salt_Solvent>
?

> <BP>
201.0

$$$$
103658
  -INDIGO-08031720192D

 33 33  0  0  0  0  0  0  0  0999 V2000
   -4.1570   -0.8000    0.0000 C   0  0  0  0  0  0  0  0  0  0  0  0
   -2.7713   -0.0000    0.0000 C   0  0  0  0  0  0  0  0  0  0  0  0
   -2.1589    1.4782    0.0000 H   0  0  0  0  0  0  0  0  0  0  0  0
   -3.3836    1.4782    0.0000 H   0  0  0  0  0  0  0  0  0  0  0  0
   -1.3856   -0.8000    0.0000 C   0  0  0  0  0  0  0  0  0  0  0  0
   -1.9979   -2.2782    0.0000 H   0  0  0  0  0  0  0  0  0  0  0  0
   -0.7734   -2.2782    0.0000 H   0  0  0  0  0  0  0  0  0  0  0  0
   -0.0001   -0.0000    0.0000 C   0  0  0  0  0  0  0  0  0  0  0  0
    0.6123    1.4782    0.0000 H   0  0  0  0  0  0  0  0  0  0  0  0
   -0.6122    1.4782    0.0000 H   0  0  0  0  0  0  0  0  0  0  0  0
    1.3856   -0.8000    0.0000 C   0  0  0  0  0  0  0  0  0  0  0  0
    0.7732   -2.2782    0.0000 H   0  0  0  0  0  0  0  0  0  0  0  0
    1.9980   -2.2782    0.0000 H   0  0  0  0  0  0  0  0  0  0  0  0
    2.7713   -0.0000    0.0000 C   0  0  0  0  0  0  0  0  0  0  0  0
    3.3835    1.4782    0.0000 H   0  0  0  0  0  0  0  0  0  0  0  0
    2.1589    1.4782    0.0000 H   0  0  0  0  0  0  0  0  0  0  0  0
    4.1570   -0.8000    0.0000 C   0  0  0  0  0  0  0  0  0  0  0  0
    3.5446   -2.2782    0.0000 H   0  0  0  0  0  0  0  0  0  0  0  0
    4.7692   -2.2782    0.0000 H   0  0  0  0  0  0  0  0  0  0  0  0
    5.5425   -0.0000    0.0000 C   0  0  0  0  0  0  0  0  0  0  0  0
    6.9282    0.8000    0.0000 H   0  0  0  0  0  0  0  0  0  0  0  0
    6.9282   -0.8000    0.0000 H   0  0  0  0  0  0  0  0  0  0  0  0
    5.5425    1.6000    0.0000 H   0  0  0  0  0  0  0  0  0  0  0  0
   -4.1570   -2.4000    0.0000 C   0  0  0  0  0  0  0  0  0  0  0  0
   -2.7713   -3.2000    0.0000 H   0  0  0  0  0  0  0  0  0  0  0  0
   -5.5427   -3.2000    0.0000 C   0  0  0  0  0  0  0  0  0  0  0  0
   -5.5427   -4.8000    0.0000 H   0  0  0  0  0  0  0  0  0  0  0  0
   -6.9281   -2.4000    0.0000 C   0  0  0  0  0  0  0  0  0  0  0  0
   -8.3138   -3.2000    0.0000 H   0  0  0  0  0  0  0  0  0  0  0  0
   -6.9281   -0.8000    0.0000 C   0  0  0  0  0  0  0  0  0  0  0  0
   -8.3138   -0.0000    0.0000 H   0  0  0  0  0  0  0  0  0  0  0  0
   -5.5427   -0.0000    0.0000 C   0  0  0  0  0  0  0  0  0  0  0  0
   -5.5427    1.6000    0.0000 H   0  0  0  0  0  0  0  0  0  0  0  0
  1  2  1  0  0  0  0
  2  3  1  0  0  0  0
  2  4  1  0  0  0  0
  2  5  1  0  0  0  0
  5  6  1  0  0  0  0
  5  7  1  0  0  0  0
  5  8  1  0  0  0  0
  8  9  1  0  0  0  0
  8 10  1  0  0  0  0
  8 11  1  0  0  0  0
 11 12  1  0  0  0  0
 11 13  1  0  0  0  0
 11 14  1  0  0  0  0
 14 15  1  0  0  0  0
 14 16  1  0  0  0  0
 14 17  1  0  0  0  0
 17 18  1  0  0  0  0
 17 19  1  0  0  0  0
 17 20  1  0  0  0  0
 20 21  1  0  0  0  0
 20 22  1  0  0  0  0
 20 23  1  0  0  0  0
  1 24  1  0  0  0  0
 24 25  1  0  0  0  0
 24 26  2  0  0  0  0
 26 27  1  0  0  0  0
 26 28  1  0  0  0  0
 28 29  1  0  0  0  0
 28 30  2  0  0  0  0
 30 31  1  0  0  0  0
 30 32  1  0  0  0  0
 32  1  2  0  0  0  0
 32 33  1  0  0  0  0
M  END
> <ChemID>
103658

> <source_casrn>
1078-71-3

> <CAS>
1078-71-3

> <SMILES>
CCCCCCCc1ccccc1

> <NAME>
1-PHENYLHEPTANE

> <preferred_name>
Heptylbenzene

> <iupac>
Heptylbenzene

> <MPID>
22606

> <dsstox_substance_id>
DTXSID3061477

> <Canonical_QSARr>
CCCCCCCc1ccccc1

> <InChI_Code_QSARr>
InChI=1S/C13H20/c1-2-3-4-5-7-10-13-11-8-6-9-12-13/h6,8-9,11-12H,2-5,7,10H2,1H3

> <InChI Key_QSARr>
LBNXAWYDQUGHGX-UHFFFAOYSA-N

> <Salt_Solvent>
?

> <BP>
240.0

$$$$
103662
  -INDIGO-08031720192D

 34 35  0  0  0  0  0  0  0  0999 V2000
   -0.0001   -0.0001    0.0000 C   0  0  0  0  0  0  0  0  0  0  0  0
    0.2089   -1.5863    0.0000 H   0  0  0  0  0  0  0  0  0  0  0  0
    1.2692   -0.9740    0.0000 H   0  0  0  0  0  0  0  0  0  0  0  0
   -1.5999   -0.0001    0.0000 C   0  0  0  0  0  0  0  0  0  0  0  0
   -1.8089    1.5863    0.0000 H   0  0  0  0  0  0  0  0  0  0  0  0
   -2.8692    0.9740    0.0000 H   0  0  0  0  0  0  0  0  0  0  0  0
   -2.4000   -1.3856    0.0000 C   0  0  0  0  0  0  0  0  0  0  0  0
   -2.1913   -2.9719    0.0000 H   0  0  0  0  0  0  0  0  0  0  0  0
   -1.1307   -2.3597    0.0000 H   0  0  0  0  0  0  0  0  0  0  0  0
   -3.9999   -1.3856    0.0000 C   0  0  0  0  0  0  0  0  0  0  0  0
   -4.7999   -2.7712    0.0000 C   0  0  0  0  0  0  0  0  0  0  0  0
   -4.0001   -4.1569    0.0000 H   0  0  0  0  0  0  0  0  0  0  0  0
   -6.4001   -2.7712    0.0000 C   0  0  0  0  0  0  0  0  0  0  0  0
   -7.2001   -4.1569    0.0000 H   0  0  0  0  0  0  0  0  0  0  0  0
   -7.2001   -1.3856    0.0000 C   0  0  0  0  0  0  0  0  0  0  0  0
   -8.8000   -1.3856    0.0000 H   0  0  0  0  0  0  0  0  0  0  0  0
   -6.4001    0.0001    0.0000 C   0  0  0  0  0  0  0  0  0  0  0  0
   -7.2001    1.3856    0.0000 H   0  0  0  0  0  0  0  0  0  0  0  0
   -4.7999   -0.0001    0.0000 C   0  0  0  0  0  0  0  0  0  0  0  0
   -3.9999    1.3856    0.0000 H   0  0  0  0  0  0  0  0  0  0  0  0
    0.8000    1.3856    0.0000 C   0  0  0  0  0  0  0  0  0  0  0  0
    0.5913    2.9719    0.0000 H   0  0  0  0  0  0  0  0  0  0  0  0
   -0.4693    2.3597    0.0000 H   0  0  0  0  0  0  0  0  0  0  0  0
    2.4001    1.3856    0.0000 C   0  0  0  0  0  0  0  0  0  0  0  0
    3.1999    2.7713    0.0000 C   0  0  0  0  0  0  0  0  0  0  0  0
    2.4001    4.1569    0.0000 H   0  0  0  0  0  0  0  0  0  0  0  0
    4.8001    2.7712    0.0000 C   0  0  0  0  0  0  0  0  0  0  0  0
    5.6001    4.1569    0.0000 H   0  0  0  0  0  0  0  0  0  0  0  0
    5.6001    1.3856    0.0000 C   0  0  0  0  0  0  0  0  0  0  0  0
    7.2000    1.3856    0.0000 H   0  0  0  0  0  0  0  0  0  0  0  0
    4.8001    0.0001    0.0000 C   0  0  0  0  0  0  0  0  0  0  0  0
    5.6001   -1.3856    0.0000 H   0  0  0  0  0  0  0  0  0  0  0  0
    3.1999    0.0001    0.0000 C   0  0  0  0  0  0  0  0  0  0  0  0
    2.4001   -1.3856    0.0000 H   0  0  0  0  0  0  0  0  0  0  0  0
  1  2  1  0  0  0  0
  1  3  1  0  0  0  0
  1  4  1  0  0  0  0
  4  5  1  0  0  0  0
  4  6  1  0  0  0  0
  4  7  1  0  0  0  0
  7  8  1  0  0  0  0
  7  9  1  0  0  0  0
  7 10  1  0  0  0  0
 10 11  1  0  0  0  0
 11 12  1  0  0  0  0
 11 13  2  0  0  0  0
 13 14  1  0  0  0  0
 13 15  1  0  0  0  0
 15 16  1  0  0  0  0
 15 17  2  0  0  0  0
 17 18  1  0  0  0  0
 17 19  1  0  0  0  0
 19 10  2  0  0  0  0
 19 20  1  0  0  0  0
  1 21  1  0  0  0  0
 21 22  1  0  0  0  0
 21 23  1  0  0  0  0
 21 24  1  0  0  0  0
 24 25  1  0  0  0  0
 25 26  1  0  0  0  0
 25 27  2  0  0  0  0
 27 28  1  0  0  0  0
 27 29  1  0  0  0  0
 29 30  1  0  0  0  0
 29 31  2  0  0  0  0
 31 32  1  0  0  0  0
 31 33  1  0  0  0  0
 33 24  2  0  0  0  0
 33 34  1  0  0  0  0
M  END
> <ChemID>
103662

> <source_casrn>
1083-56-3

> <CAS>
1083-56-3

> <SMILES>
C(CCCc1ccccc1)c1ccccc1

> <NAME>
BENZENE, 1,1'-(1,4-BUTANEDIYL)BIS-

> <preferred_name>
Benzene, 1,1'-(1,4-butanediyl)bis- (9CI)

> <iupac>
4-phenylbutylbenzene

> <MPID>
22610

> <dsstox_substance_id>
DTXSID60148492

> <Canonical_QSARr>
C(CCCc1ccccc1)c1ccccc1

> <InChI_Code_QSARr>
InChI=1S/C16H18/c1-3-9-15(10-4-1)13-7-8-14-16-11-5-2-6-12-16/h1-6,9-12H,7-8,13-14H2

> <InChI Key_QSARr>
GLJFYGFBITUZOE-UHFFFAOYSA-N

> <Salt_Solvent>
?

> <BP>
317.0

$$$$
103667
  -INDIGO-08031720192D

 18 17  0  0  0  0  0  0  0  0999 V2000
   -0.0000    0.0000    0.0000 N   0  0  0  0  0  0  0  0  0  0  0  0
    0.8000    1.3856    0.0000 C   0  0  0  0  0  0  0  0  0  0  0  0
    1.6000    2.7713    0.0000 H   0  0  0  0  0  0  0  0  0  0  0  0
    2.4000    1.3856    0.0000 H   0  0  0  0  0  0  0  0  0  0  0  0
   -0.0000    2.7713    0.0000 H   0  0  0  0  0  0  0  0  0  0  0  0
    0.8000   -1.3856    0.0000 C   0  0  0  0  0  0  0  0  0  0  0  0
    1.6000   -2.7713    0.0000 H   0  0  0  0  0  0  0  0  0  0  0  0
    2.4000   -1.3856    0.0000 H   0  0  0  0  0  0  0  0  0  0  0  0
   -0.0000   -2.7713    0.0000 H   0  0  0  0  0  0  0  0  0  0  0  0
   -1.6000    0.0000    0.0000 B   0  0  0  0  0  0  0  0  0  0  0  0
   -2.4000    1.3856    0.0000 C   0  0  0  0  0  0  0  0  0  0  0  0
   -3.2000    2.7713    0.0000 H   0  0  0  0  0  0  0  0  0  0  0  0
   -4.0000    1.3856    0.0000 H   0  0  0  0  0  0  0  0  0  0  0  0
   -1.6000    2.7713    0.0000 H   0  0  0  0  0  0  0  0  0  0  0  0
   -2.4000   -1.3856    0.0000 C   0  0  0  0  0  0  0  0  0  0  0  0
   -3.2000   -2.7713    0.0000 H   0  0  0  0  0  0  0  0  0  0  0  0
   -4.0000   -1.3856    0.0000 H   0  0  0  0  0  0  0  0  0  0  0  0
   -1.6000   -2.7713    0.0000 H   0  0  0  0  0  0  0  0  0  0  0  0
  1  2  1  0  0  0  0
  2  3  1  0  0  0  0
  2  4  1  0  0  0  0
  2  5  1  0  0  0  0
  1  6  1  0  0  0  0
  6  7  1  0  0  0  0
  6  8  1  0  0  0  0
  6  9  1  0  0  0  0
  1 10  1  0  0  0  0
 10 11  1  0  0  0  0
 11 12  1  0  0  0  0
 11 13  1  0  0  0  0
 11 14  1  0  0  0  0
 10 15  1  0  0  0  0
 15 16  1  0  0  0  0
 15 17  1  0  0  0  0
 15 18  1  0  0  0  0
M  END
> <ChemID>
103667

> <source_casrn>
1113-30-0

> <CAS>
1113-30-0

> <SMILES>
CB(C)N(C)C

> <NAME>
N,N,1,1-Tetramethyl boranamine

> <preferred_name>
Boranamine, N,N,1,1-tetramethyl-

> <iupac>
N-dimethylboranyl-N-methylmethanamine

> <MPID>
22614

> <dsstox_substance_id>
DTXSID60149585

> <Canonical_QSARr>
CB(C)N(C)C

> <InChI_Code_QSARr>
InChI=1S/C4H12BN/c1-5(2)6(3)4/h1-4H3

> <InChI Key_QSARr>
BUAGRGPXYOEKCF-UHFFFAOYSA-N

> <Salt_Solvent>
?

> <BP>
65.0

$$$$
103671
  -INDIGO-08031720192D

 27 26  0  0  0  0  0  0  0  0999 V2000
    2.4000   -1.3856    0.0000 C   0  0  0  0  0  0  0  0  0  0  0  0
    4.0000   -1.3856    0.0000 H   0  0  0  0  0  0  0  0  0  0  0  0
    3.2000   -2.7712    0.0000 H   0  0  0  0  0  0  0  0  0  0  0  0
    3.2000   -0.0000    0.0000 H   0  0  0  0  0  0  0  0  0  0  0  0
    1.6001   -0.0000    0.0000 C   0  0  0  0  0  0  0  0  0  0  0  0
    1.8089    1.5863    0.0000 H   0  0  0  0  0  0  0  0  0  0  0  0
    2.8693    0.9740    0.0000 H   0  0  0  0  0  0  0  0  0  0  0  0
   -0.0000   -0.0000    0.0000 N   0  0  0  0  0  0  0  0  0  0  0  0
   -0.8000   -1.3856    0.0000 C   0  0  0  0  0  0  0  0  0  0  0  0
   -0.0000   -2.7712    0.0000 O   0  0  0  0  0  0  0  0  0  0  0  0
   -2.4000   -1.3856    0.0000 C   0  0  0  0  0  0  0  0  0  0  0  0
   -3.6694   -0.4116    0.0000 H   0  0  0  0  0  0  0  0  0  0  0  0
   -2.6088    0.2006    0.0000 H   0  0  0  0  0  0  0  0  0  0  0  0
   -3.1999   -2.7712    0.0000 C   0  0  0  0  0  0  0  0  0  0  0  0
   -1.9307   -3.7453    0.0000 H   0  0  0  0  0  0  0  0  0  0  0  0
   -2.9911   -4.3576    0.0000 H   0  0  0  0  0  0  0  0  0  0  0  0
   -4.8000   -2.7712    0.0000 C   0  0  0  0  0  0  0  0  0  0  0  0
   -6.4000   -2.7712    0.0000 H   0  0  0  0  0  0  0  0  0  0  0  0
   -5.6000   -4.1569    0.0000 H   0  0  0  0  0  0  0  0  0  0  0  0
   -5.6000   -1.3856    0.0000 H   0  0  0  0  0  0  0  0  0  0  0  0
   -0.8000    1.3856    0.0000 C   0  0  0  0  0  0  0  0  0  0  0  0
   -0.5912    2.9720    0.0000 H   0  0  0  0  0  0  0  0  0  0  0  0
    0.4694    2.3596    0.0000 H   0  0  0  0  0  0  0  0  0  0  0  0
   -2.4000    1.3856    0.0000 C   0  0  0  0  0  0  0  0  0  0  0  0
   -3.1999    2.7713    0.0000 H   0  0  0  0  0  0  0  0  0  0  0  0
   -4.0001    1.3856    0.0000 H   0  0  0  0  0  0  0  0  0  0  0  0
   -1.6000    2.7713    0.0000 H   0  0  0  0  0  0  0  0  0  0  0  0
  1  2  1  0  0  0  0
  1  3  1  0  0  0  0
  1  4  1  0  0  0  0
  1  5  1  0  0  0  0
  5  6  1  0  0  0  0
  5  7  1  0  0  0  0
  5  8  1  0  0  0  0
  8  9  1  0  0  0  0
  9 10  2  0  0  0  0
  9 11  1  0  0  0  0
 11 12  1  0  0  0  0
 11 13  1  0  0  0  0
 11 14  1  0  0  0  0
 14 15  1  0  0  0  0
 14 16  1  0  0  0  0
 14 17  1  0  0  0  0
 17 18  1  0  0  0  0
 17 19  1  0  0  0  0
 17 20  1  0  0  0  0
  8 21  1  0  0  0  0
 21 22  1  0  0  0  0
 21 23  1  0  0  0  0
 21 24  1  0  0  0  0
 24 25  1  0  0  0  0
 24 26  1  0  0  0  0
 24 27  1  0  0  0  0
M  END
> <ChemID>
103671

> <source_casrn>
1114-76-7

> <CAS>
1114-76-7

> <SMILES>
CCCC(=O)N(CC)CC

> <NAME>
Butanamide, N,N-diethyl-

> <preferred_name>
Butanamide, N,N-diethyl-

> <iupac>
N,N-Diethylbutanamide

> <MPID>
22618

> <dsstox_substance_id>
DTXSID1061495

> <Canonical_QSARr>
CCCC(=O)N(CC)CC

> <InChI_Code_QSARr>
InChI=1S/C8H17NO/c1-4-7-8(10)9(5-2)6-3/h4-7H2,1-3H3

> <InChI Key_QSARr>
CDQSTBHGKNNPSY-UHFFFAOYSA-N

> <Salt_Solvent>
?

> <BP>
206.0

$$$$
103676
  -INDIGO-08031720192D

 40 39  0  0  0  0  0  0  0  0999 V2000
   -0.0001   -4.0513    0.0000 C   0  0  0  0  0  0  0  0  0  0  0  0
    1.0285   -5.2770    0.0000 H   0  0  0  0  0  0  0  0  0  0  0  0
    1.5756   -3.7736    0.0000 H   0  0  0  0  0  0  0  0  0  0  0  0
   -0.5472   -5.5549    0.0000 H   0  0  0  0  0  0  0  0  0  0  0  0
   -1.0285   -2.8257    0.0000 C   0  0  0  0  0  0  0  0  0  0  0  0
   -2.0570   -1.6000    0.0000 H   0  0  0  0  0  0  0  0  0  0  0  0
   -2.2541   -3.8542    0.0000 C   0  0  0  0  0  0  0  0  0  0  0  0
   -3.4799   -4.8825    0.0000 H   0  0  0  0  0  0  0  0  0  0  0  0
   -1.9763   -5.4299    0.0000 H   0  0  0  0  0  0  0  0  0  0  0  0
   -3.7576   -3.3069    0.0000 H   0  0  0  0  0  0  0  0  0  0  0  0
   -0.0001   -1.6000    0.0000 C   0  0  0  0  0  0  0  0  0  0  0  0
    0.9741   -2.8694    0.0000 H   0  0  0  0  0  0  0  0  0  0  0  0
    1.5863   -1.8088    0.0000 H   0  0  0  0  0  0  0  0  0  0  0  0
   -0.0001    0.0000    0.0000 N   0  0  0  0  0  0  0  0  0  0  0  0
   -1.3857    0.8000    0.0000 C   0  0  0  0  0  0  0  0  0  0  0  0
   -2.9719    0.5912    0.0000 H   0  0  0  0  0  0  0  0  0  0  0  0
   -2.3597   -0.4694    0.0000 H   0  0  0  0  0  0  0  0  0  0  0  0
   -1.9328    2.3036    0.0000 C   0  0  0  0  0  0  0  0  0  0  0  0
   -0.3571    2.5813    0.0000 H   0  0  0  0  0  0  0  0  0  0  0  0
   -2.2108    3.8792    0.0000 C   0  0  0  0  0  0  0  0  0  0  0  0
   -2.4885    5.4549    0.0000 H   0  0  0  0  0  0  0  0  0  0  0  0
   -3.7143    4.4264    0.0000 H   0  0  0  0  0  0  0  0  0  0  0  0
   -0.9850    4.9077    0.0000 H   0  0  0  0  0  0  0  0  0  0  0  0
   -3.5085    2.0257    0.0000 C   0  0  0  0  0  0  0  0  0  0  0  0
   -5.0843    1.7479    0.0000 H   0  0  0  0  0  0  0  0  0  0  0  0
   -4.0558    0.5221    0.0000 H   0  0  0  0  0  0  0  0  0  0  0  0
   -4.5370    3.2513    0.0000 H   0  0  0  0  0  0  0  0  0  0  0  0
    1.3856    0.8000    0.0000 C   0  0  0  0  0  0  0  0  0  0  0  0
    1.9979    2.2782    0.0000 H   0  0  0  0  0  0  0  0  0  0  0  0
    0.7734    2.2782    0.0000 H   0  0  0  0  0  0  0  0  0  0  0  0
    2.9613    0.5221    0.0000 C   0  0  0  0  0  0  0  0  0  0  0  0
    2.4142   -0.9813    0.0000 H   0  0  0  0  0  0  0  0  0  0  0  0
    4.4648   -0.0250    0.0000 C   0  0  0  0  0  0  0  0  0  0  0  0
    5.9683   -0.5724    0.0000 H   0  0  0  0  0  0  0  0  0  0  0  0
    5.6906    1.0035    0.0000 H   0  0  0  0  0  0  0  0  0  0  0  0
    4.7428   -1.6007    0.0000 H   0  0  0  0  0  0  0  0  0  0  0  0
    3.5086    2.0257    0.0000 C   0  0  0  0  0  0  0  0  0  0  0  0
    4.0558    3.5291    0.0000 H   0  0  0  0  0  0  0  0  0  0  0  0
    2.4801    3.2513    0.0000 H   0  0  0  0  0  0  0  0  0  0  0  0
    5.0843    2.3036    0.0000 H   0  0  0  0  0  0  0  0  0  0  0  0
  1  2  1  0  0  0  0
  1  3  1  0  0  0  0
  1  4  1  0  0  0  0
  1  5  1  0  0  0  0
  5  6  1  0  0  0  0
  5  7  1  0  0  0  0
  7  8  1  0  0  0  0
  7  9  1  0  0  0  0
  7 10  1  0  0  0  0
  5 11  1  0  0  0  0
 11 12  1  0  0  0  0
 11 13  1  0  0  0  0
 11 14  1  0  0  0  0
 14 15  1  0  0  0  0
 15 16  1  0  0  0  0
 15 17  1  0  0  0  0
 15 18  1  0  0  0  0
 18 19  1  0  0  0  0
 18 20  1  0  0  0  0
 20 21  1  0  0  0  0
 20 22  1  0  0  0  0
 20 23  1  0  0  0  0
 18 24  1  0  0  0  0
 24 25  1  0  0  0  0
 24 26  1  0  0  0  0
 24 27  1  0  0  0  0
 14 28  1  0  0  0  0
 28 29  1  0  0  0  0
 28 30  1  0  0  0  0
 28 31  1  0  0  0  0
 31 32  1  0  0  0  0
 31 33  1  0  0  0  0
 33 34  1  0  0  0  0
 33 35  1  0  0  0  0
 33 36  1  0  0  0  0
 31 37  1  0  0  0  0
 37 38  1  0  0  0  0
 37 39  1  0  0  0  0
 37 40  1  0  0  0  0
M  END
> <ChemID>
103676

> <source_casrn>
1116-40-1

> <CAS>
1116-40-1

> <SMILES>
CC(C)CN(CC(C)C)CC(C)C

> <NAME>
1-Propanamine, 2-methyl-N,N-bis(2-methylpropyl)-

> <preferred_name>
Triisobutylamine

> <iupac>
2-methyl-N,N-bis(2-methylpropyl)propan-1-amine

> <MPID>
22623

> <dsstox_substance_id>
DTXSID7026233

> <Canonical_QSARr>
CC(C)CN(CC(C)C)CC(C)C

> <InChI_Code_QSARr>
InChI=1S/C12H27N/c1-10(2)7-13(8-11(3)4)9-12(5)6/h10-12H,7-9H2,1-6H3

> <InChI Key_QSARr>
IIFFFBSAXDNJHX-UHFFFAOYSA-N

> <Salt_Solvent>
?

> <BP>
191.5

$$$$
103680
  -INDIGO-08031720192D

 35 34  0  0  0  0  0  0  0  0999 V2000
   -5.5425   -1.6000    0.0000 O   0  0  0  0  0  0  0  0  0  0  0  0
   -5.5425    0.0000    0.0000 C   0  0  0  0  0  0  0  0  0  0  0  0
   -4.1569    0.8000    0.0000 O   0  0  0  0  0  0  0  0  0  0  0  0
   -2.7713    0.0000    0.0000 C   0  0  0  0  0  0  0  0  0  0  0  0
   -2.1589   -1.4782    0.0000 H   0  0  0  0  0  0  0  0  0  0  0  0
   -3.3837   -1.4782    0.0000 H   0  0  0  0  0  0  0  0  0  0  0  0
   -1.3857    0.8000    0.0000 C   0  0  0  0  0  0  0  0  0  0  0  0
   -1.9978    2.2782    0.0000 H   0  0  0  0  0  0  0  0  0  0  0  0
   -0.7733    2.2782    0.0000 H   0  0  0  0  0  0  0  0  0  0  0  0
   -0.0001    0.0000    0.0000 C   0  0  0  0  0  0  0  0  0  0  0  0
    0.6123   -1.4782    0.0000 H   0  0  0  0  0  0  0  0  0  0  0  0
   -0.6122   -1.4782    0.0000 H   0  0  0  0  0  0  0  0  0  0  0  0
    1.3858    0.8000    0.0000 C   0  0  0  0  0  0  0  0  0  0  0  0
    0.7734    2.2782    0.0000 H   0  0  0  0  0  0  0  0  0  0  0  0
    1.9979    2.2782    0.0000 H   0  0  0  0  0  0  0  0  0  0  0  0
    2.7714    0.0000    0.0000 C   0  0  0  0  0  0  0  0  0  0  0  0
    3.3835   -1.4782    0.0000 H   0  0  0  0  0  0  0  0  0  0  0  0
    2.1590   -1.4782    0.0000 H   0  0  0  0  0  0  0  0  0  0  0  0
    4.1570    0.8000    0.0000 C   0  0  0  0  0  0  0  0  0  0  0  0
    5.5426    1.6000    0.0000 H   0  0  0  0  0  0  0  0  0  0  0  0
    5.5426    0.0000    0.0000 H   0  0  0  0  0  0  0  0  0  0  0  0
    4.1570    2.4000    0.0000 H   0  0  0  0  0  0  0  0  0  0  0  0
   -6.9281    0.8000    0.0000 C   0  0  0  0  0  0  0  0  0  0  0  0
   -7.5405    2.2782    0.0000 H   0  0  0  0  0  0  0  0  0  0  0  0
   -6.3160    2.2782    0.0000 H   0  0  0  0  0  0  0  0  0  0  0  0
   -8.3140    0.0000    0.0000 C   0  0  0  0  0  0  0  0  0  0  0  0
   -7.7016   -1.4782    0.0000 H   0  0  0  0  0  0  0  0  0  0  0  0
   -8.9261   -1.4782    0.0000 H   0  0  0  0  0  0  0  0  0  0  0  0
   -9.6996    0.8000    0.0000 C   0  0  0  0  0  0  0  0  0  0  0  0
  -10.3117    2.2782    0.0000 H   0  0  0  0  0  0  0  0  0  0  0  0
   -9.0872    2.2782    0.0000 H   0  0  0  0  0  0  0  0  0  0  0  0
  -11.0852    0.0000    0.0000 C   0  0  0  0  0  0  0  0  0  0  0  0
  -12.4708   -0.8000    0.0000 H   0  0  0  0  0  0  0  0  0  0  0  0
  -12.4708    0.8000    0.0000 H   0  0  0  0  0  0  0  0  0  0  0  0
  -11.0852   -1.6000    0.0000 H   0  0  0  0  0  0  0  0  0  0  0  0
  1  2  2  0  0  0  0
  2  3  1  0  0  0  0
  3  4  1  0  0  0  0
  4  5  1  0  0  0  0
  4  6  1  0  0  0  0
  4  7  1  0  0  0  0
  7  8  1  0  0  0  0
  7  9  1  0  0  0  0
  7 10  1  0  0  0  0
 10 11  1  0  0  0  0
 10 12  1  0  0  0  0
 10 13  1  0  0  0  0
 13 14  1  0  0  0  0
 13 15  1  0  0  0  0
 13 16  1  0  0  0  0
 16 17  1  0  0  0  0
 16 18  1  0  0  0  0
 16 19  1  0  0  0  0
 19 20  1  0  0  0  0
 19 21  1  0  0  0  0
 19 22  1  0  0  0  0
  2 23  1  0  0  0  0
 23 24  1  0  0  0  0
 23 25  1  0  0  0  0
 23 26  1  0  0  0  0
 26 27  1  0  0  0  0
 26 28  1  0  0  0  0
 26 29  1  0  0  0  0
 29 30  1  0  0  0  0
 29 31  1  0  0  0  0
 29 32  1  0  0  0  0
 32 33  1  0  0  0  0
 32 34  1  0  0  0  0
 32 35  1  0  0  0  0
M  END
> <ChemID>
103680

> <source_casrn>
1117-59-5

> <CAS>
1117-59-5

> <SMILES>
CCCCC(=O)OCCCCCC

> <NAME>
Pentanoic acid, hexyl ester

> <preferred_name>
Pentanoic acid, hexyl ester

> <iupac>
Hexyl pentanoate

> <MPID>
22627

> <dsstox_substance_id>
DTXSID3061502

> <Canonical_QSARr>
CCCCC(=O)OCCCCCC

> <InChI_Code_QSARr>
InChI=1S/C11H22O2/c1-3-5-7-8-10-13-11(12)9-6-4-2/h3-10H2,1-2H3

> <InChI Key_QSARr>
YERFHJZYNMRVLO-UHFFFAOYSA-N

> <Salt_Solvent>
?

> <BP>
226.3

$$$$
103684
  -INDIGO-08031720192D

 21 20  0  0  0  0  0  0  0  0999 V2000
   -2.7712    0.0000    0.0000 N   0  0  0  0  0  0  0  0  0  0  0  0
   -2.7712   -1.6000    0.0000 H   0  0  0  0  0  0  0  0  0  0  0  0
   -1.3856    0.8000    0.0000 C   0  0  0  0  0  0  0  0  0  0  0  0
   -1.9979    2.2782    0.0000 H   0  0  0  0  0  0  0  0  0  0  0  0
   -0.7734    2.2782    0.0000 H   0  0  0  0  0  0  0  0  0  0  0  0
   -0.0001    0.0000    0.0000 C   0  0  0  0  0  0  0  0  0  0  0  0
    0.6123   -1.4782    0.0000 H   0  0  0  0  0  0  0  0  0  0  0  0
   -0.6122   -1.4782    0.0000 H   0  0  0  0  0  0  0  0  0  0  0  0
    1.3856    0.8000    0.0000 C   0  0  0  0  0  0  0  0  0  0  0  0
    0.7733    2.2782    0.0000 H   0  0  0  0  0  0  0  0  0  0  0  0
    1.9979    2.2782    0.0000 H   0  0  0  0  0  0  0  0  0  0  0  0
    2.7713    0.0000    0.0000 C   0  0  0  0  0  0  0  0  0  0  0  0
    4.1569   -0.8000    0.0000 H   0  0  0  0  0  0  0  0  0  0  0  0
    4.1569    0.8000    0.0000 H   0  0  0  0  0  0  0  0  0  0  0  0
    2.7713   -1.6000    0.0000 H   0  0  0  0  0  0  0  0  0  0  0  0
   -4.1569    0.8000    0.0000 C   0  0  0  0  0  0  0  0  0  0  0  0
   -5.5425    0.0000    0.0000 C   0  0  0  0  0  0  0  0  0  0  0  0
   -6.9282   -0.8000    0.0000 H   0  0  0  0  0  0  0  0  0  0  0  0
   -6.9282    0.8000    0.0000 H   0  0  0  0  0  0  0  0  0  0  0  0
   -5.5425   -1.6000    0.0000 H   0  0  0  0  0  0  0  0  0  0  0  0
   -4.1569    2.4000    0.0000 O   0  0  0  0  0  0  0  0  0  0  0  0
  1  2  1  0  0  0  0
  1  3  1  0  0  0  0
  3  4  1  0  0  0  0
  3  5  1  0  0  0  0
  3  6  1  0  0  0  0
  6  7  1  0  0  0  0
  6  8  1  0  0  0  0
  6  9  1  0  0  0  0
  9 10  1  0  0  0  0
  9 11  1  0  0  0  0
  9 12  1  0  0  0  0
 12 13  1  0  0  0  0
 12 14  1  0  0  0  0
 12 15  1  0  0  0  0
  1 16  1  0  0  0  0
 16 17  1  0  0  0  0
 17 18  1  0  0  0  0
 17 19  1  0  0  0  0
 17 20  1  0  0  0  0
 16 21  2  0  0  0  0
M  END
> <ChemID>
103684

> <source_casrn>
1119-49-9

> <CAS>
1119-49-9

> <SMILES>
CCCCNC(C)=O

> <NAME>
Acetamide, N-butyl-

> <preferred_name>
Acetamide, N-butyl-

> <iupac>
N-Butylacetamide

> <MPID>
22631

> <dsstox_substance_id>
DTXSID2061511

> <Canonical_QSARr>
CCCCNC(C)=O

> <InChI_Code_QSARr>
InChI=1S/C6H13NO/c1-3-4-5-7-6(2)8/h3-5H2,1-2H3,(H,7,8)

> <InChI Key_QSARr>
GYLDXXLJMRTVSS-UHFFFAOYSA-N

> <Salt_Solvent>
?

> <BP>
229.0

$$$$
103688
  -INDIGO-08031720192D

 35 34  0  0  0  0  0  0  0  0999 V2000
    6.9283    0.8000    0.0000 C   0  0  0  0  0  0  0  0  0  0  0  0
    8.3138    1.6000    0.0000 H   0  0  0  0  0  0  0  0  0  0  0  0
    8.3138    0.0000    0.0000 H   0  0  0  0  0  0  0  0  0  0  0  0
    6.9283    2.4000    0.0000 H   0  0  0  0  0  0  0  0  0  0  0  0
    5.5427    0.0000    0.0000 C   0  0  0  0  0  0  0  0  0  0  0  0
    6.1549   -1.4782    0.0000 H   0  0  0  0  0  0  0  0  0  0  0  0
    4.9302   -1.4782    0.0000 H   0  0  0  0  0  0  0  0  0  0  0  0
    4.1569    0.8000    0.0000 C   0  0  0  0  0  0  0  0  0  0  0  0
    3.5446    2.2782    0.0000 H   0  0  0  0  0  0  0  0  0  0  0  0
    4.7691    2.2782    0.0000 H   0  0  0  0  0  0  0  0  0  0  0  0
    2.7713    0.0000    0.0000 C   0  0  0  0  0  0  0  0  0  0  0  0
    3.3835   -1.4782    0.0000 H   0  0  0  0  0  0  0  0  0  0  0  0
    2.1590   -1.4782    0.0000 H   0  0  0  0  0  0  0  0  0  0  0  0
    1.3857    0.8000    0.0000 C   0  0  0  0  0  0  0  0  0  0  0  0
    0.7735    2.2782    0.0000 H   0  0  0  0  0  0  0  0  0  0  0  0
    1.9979    2.2782    0.0000 H   0  0  0  0  0  0  0  0  0  0  0  0
    0.0001    0.0000    0.0000 C   0  0  0  0  0  0  0  0  0  0  0  0
    0.6124   -1.4782    0.0000 H   0  0  0  0  0  0  0  0  0  0  0  0
   -0.6124   -1.4782    0.0000 H   0  0  0  0  0  0  0  0  0  0  0  0
   -1.3857    0.8000    0.0000 C   0  0  0  0  0  0  0  0  0  0  0  0
   -1.9979    2.2782    0.0000 H   0  0  0  0  0  0  0  0  0  0  0  0
   -0.7735    2.2782    0.0000 H   0  0  0  0  0  0  0  0  0  0  0  0
   -2.7713    0.0000    0.0000 C   0  0  0  0  0  0  0  0  0  0  0  0
   -2.1590   -1.4782    0.0000 H   0  0  0  0  0  0  0  0  0  0  0  0
   -3.3835   -1.4782    0.0000 H   0  0  0  0  0  0  0  0  0  0  0  0
   -4.1569    0.8000    0.0000 C   0  0  0  0  0  0  0  0  0  0  0  0
   -4.7691    2.2782    0.0000 H   0  0  0  0  0  0  0  0  0  0  0  0
   -3.5446    2.2782    0.0000 H   0  0  0  0  0  0  0  0  0  0  0  0
   -5.5427    0.0000    0.0000 C   0  0  0  0  0  0  0  0  0  0  0  0
   -4.9302   -1.4782    0.0000 H   0  0  0  0  0  0  0  0  0  0  0  0
   -6.1549   -1.4782    0.0000 H   0  0  0  0  0  0  0  0  0  0  0  0
   -6.9283    0.8000    0.0000 C   0  0  0  0  0  0  0  0  0  0  0  0
   -8.3138    1.6000    0.0000 H   0  0  0  0  0  0  0  0  0  0  0  0
   -8.3138    0.0000    0.0000 H   0  0  0  0  0  0  0  0  0  0  0  0
   -6.9283    2.4000    0.0000 H   0  0  0  0  0  0  0  0  0  0  0  0
  1  2  1  0  0  0  0
  1  3  1  0  0  0  0
  1  4  1  0  0  0  0
  1  5  1  0  0  0  0
  5  6  1  0  0  0  0
  5  7  1  0  0  0  0
  5  8  1  0  0  0  0
  8  9  1  0  0  0  0
  8 10  1  0  0  0  0
  8 11  1  0  0  0  0
 11 12  1  0  0  0  0
 11 13  1  0  0  0  0
 11 14  1  0  0  0  0
 14 15  1  0  0  0  0
 14 16  1  0  0  0  0
 14 17  1  0  0  0  0
 17 18  1  0  0  0  0
 17 19  1  0  0  0  0
 17 20  1  0  0  0  0
 20 21  1  0  0  0  0
 20 22  1  0  0  0  0
 20 23  1  0  0  0  0
 23 24  1  0  0  0  0
 23 25  1  0  0  0  0
 23 26  1  0  0  0  0
 26 27  1  0  0  0  0
 26 28  1  0  0  0  0
 26 29  1  0  0  0  0
 29 30  1  0  0  0  0
 29 31  1  0  0  0  0
 29 32  1  0  0  0  0
 32 33  1  0  0  0  0
 32 34  1  0  0  0  0
 32 35  1  0  0  0  0
M  END
> <ChemID>
103688

> <source_casrn>
1120-21-4

> <CAS>
1120-21-4

> <SMILES>
CCCCCCCCCCC

> <NAME>
N-UNDECANE

> <preferred_name>
Undecane

> <iupac>
C11H24

> <MPID>
22635

> <dsstox_substance_id>
DTXSID9021689

> <Canonical_QSARr>
CCCCCCCCCCC

> <InChI_Code_QSARr>
InChI=1S/C11H24/c1-3-5-7-9-11-10-8-6-4-2/h3-11H2,1-2H3

> <InChI Key_QSARr>
RSJKGSCJYJTIGS-UHFFFAOYSA-N

> <Salt_Solvent>
?

> <BP>
195.9

$$$$
103692
  -INDIGO-08031720192D

 11 11  0  0  0  0  0  0  0  0999 V2000
   -0.5383    2.5323    0.0000 S   0  0  0  0  0  0  0  0  0  0  0  0
    0.6508    1.4617    0.0000 C   0  0  0  0  0  0  0  0  0  0  0  0
    1.5912    2.7561    0.0000 H   0  0  0  0  0  0  0  0  0  0  0  0
    2.0364    0.6617    0.0000 H   0  0  0  0  0  0  0  0  0  0  0  0
    0.0000    0.0000    0.0000 C   0  0  0  0  0  0  0  0  0  0  0  0
    1.5217   -0.4944    0.0000 H   0  0  0  0  0  0  0  0  0  0  0  0
   -0.3327   -1.5650    0.0000 H   0  0  0  0  0  0  0  0  0  0  0  0
   -1.5912    0.1672    0.0000 C   0  0  0  0  0  0  0  0  0  0  0  0
   -2.6618   -1.0218    0.0000 H   0  0  0  0  0  0  0  0  0  0  0  0
   -1.9239    1.7323    0.0000 C   0  0  0  0  0  0  0  0  0  0  0  0
   -3.3856    2.3830    0.0000 H   0  0  0  0  0  0  0  0  0  0  0  0
  1  2  1  0  0  0  0
  2  3  1  0  0  0  0
  2  4  1  0  0  0  0
  2  5  1  0  0  0  0
  5  6  1  0  0  0  0
  5  7  1  0  0  0  0
  5  8  1  0  0  0  0
  8  9  1  0  0  0  0
  8 10  2  0  0  0  0
 10  1  1  0  0  0  0
 10 11  1  0  0  0  0
M  END
> <ChemID>
103692

> <source_casrn>
1120-59-8

> <CAS>
1120-59-8

> <SMILES>
C1CSC=C1

> <NAME>
THIOPHENE, 2,3-DIHYDRO-

> <preferred_name>
Thiophene, 2,3-dihydro-

> <iupac>
2,3-Dihydrothiophene

> <MPID>
22639

> <dsstox_substance_id>
DTXSID20149809

> <Canonical_QSARr>
C1CSC=C1

> <InChI_Code_QSARr>
InChI=1S/C4H6S/c1-2-4-5-3-1/h1,3H,2,4H2

> <InChI Key_QSARr>
OXBLVCZKDOZZOJ-UHFFFAOYSA-N

> <Salt_Solvent>
?

> <BP>
112.1

$$$$
103696
  -INDIGO-08031720192D

 15 15  0  0  0  0  0  0  0  0999 V2000
    1.3856    0.8000    0.0000 C   0  0  0  0  0  0  0  0  0  0  0  0
    2.5747   -0.2706    0.0000 C   0  0  0  0  0  0  0  0  0  0  0  0
    4.1397    0.0621    0.0000 C   0  0  0  0  0  0  0  0  0  0  0  0
    5.7047    0.3947    0.0000 H   0  0  0  0  0  0  0  0  0  0  0  0
    4.6341    1.5838    0.0000 H   0  0  0  0  0  0  0  0  0  0  0  0
    5.2103   -1.1270    0.0000 H   0  0  0  0  0  0  0  0  0  0  0  0
    1.9239   -1.7323    0.0000 C   0  0  0  0  0  0  0  0  0  0  0  0
    2.7239   -3.1179    0.0000 H   0  0  0  0  0  0  0  0  0  0  0  0
    0.3327   -1.5650    0.0000 C   0  0  0  0  0  0  0  0  0  0  0  0
    0.3327   -3.1650    0.0000 H   0  0  0  0  0  0  0  0  0  0  0  0
   -1.2586   -1.7323    0.0000 H   0  0  0  0  0  0  0  0  0  0  0  0
    0.0000    0.0000    0.0000 C   0  0  0  0  0  0  0  0  0  0  0  0
   -1.5217   -0.4944    0.0000 H   0  0  0  0  0  0  0  0  0  0  0  0
   -0.6508    1.4617    0.0000 H   0  0  0  0  0  0  0  0  0  0  0  0
    1.5529    2.3912    0.0000 O   0  0  0  0  0  0  0  0  0  0  0  0
  1  2  1  0  0  0  0
  2  3  1  0  0  0  0
  3  4  1  0  0  0  0
  3  5  1  0  0  0  0
  3  6  1  0  0  0  0
  2  7  2  0  0  0  0
  7  8  1  0  0  0  0
  7  9  1  0  0  0  0
  9 10  1  0  0  0  0
  9 11  1  0  0  0  0
  9 12  1  0  0  0  0
 12  1  1  0  0  0  0
 12 13  1  0  0  0  0
 12 14  1  0  0  0  0
  1 15  2  0  0  0  0
M  END
> <ChemID>
103696

> <source_casrn>
1120-73-6

> <CAS>
NOCAS_870846

> <SMILES>
CC1=CCCC1=O

> <NAME>
2-CYCLOPENTEN-1-ONE, 2-METHYL-

> <preferred_name>


> <iupac>


> <MPID>
22643

> <dsstox_substance_id>
DTXSID00870846

> <Canonical_QSARr>
CC1=CCCC1=O

> <InChI_Code_QSARr>
InChI=1S/C6H8O/c1-5-3-2-4-6(5)7/h3H,2,4H2,1H3

> <InChI Key_QSARr>
ZSBWUNDRDHVNJL-UHFFFAOYSA-N

> <Salt_Solvent>
?

> <BP>
157.0

$$$$
103701
  -INDIGO-08031720192D

 15 15  0  0  0  0  0  0  0  0999 V2000
   -1.3856    2.4000    0.0000 N   0  0  0  0  0  0  0  0  0  0  0  0
    0.0001    1.6000    0.0000 C   0  0  0  0  0  0  0  0  0  0  0  0
    1.3856    2.4000    0.0000 H   0  0  0  0  0  0  0  0  0  0  0  0
    0.0001   -0.0000    0.0000 C   0  0  0  0  0  0  0  0  0  0  0  0
    1.3856   -0.8000    0.0000 C   0  0  0  0  0  0  0  0  0  0  0  0
    1.3856   -2.4000    0.0000 H   0  0  0  0  0  0  0  0  0  0  0  0
    2.7713    0.0000    0.0000 C   0  0  0  0  0  0  0  0  0  0  0  0
    4.1569   -0.8000    0.0000 H   0  0  0  0  0  0  0  0  0  0  0  0
    2.7713    1.6000    0.0000 H   0  0  0  0  0  0  0  0  0  0  0  0
   -1.3856   -0.8000    0.0000 C   0  0  0  0  0  0  0  0  0  0  0  0
   -1.3856   -2.4000    0.0000 H   0  0  0  0  0  0  0  0  0  0  0  0
   -2.7713   -0.0000    0.0000 C   0  0  0  0  0  0  0  0  0  0  0  0
   -4.1569   -0.8000    0.0000 H   0  0  0  0  0  0  0  0  0  0  0  0
   -2.7712    1.6000    0.0000 C   0  0  0  0  0  0  0  0  0  0  0  0
   -4.1569    2.4000    0.0000 H   0  0  0  0  0  0  0  0  0  0  0  0
  1  2  1  0  0  0  0
  2  3  1  0  0  0  0
  2  4  2  0  0  0  0
  4  5  1  0  0  0  0
  5  6  1  0  0  0  0
  5  7  2  0  0  0  0
  7  8  1  0  0  0  0
  7  9  1  0  0  0  0
  4 10  1  0  0  0  0
 10 11  1  0  0  0  0
 10 12  2  0  0  0  0
 12 13  1  0  0  0  0
 12 14  1  0  0  0  0
 14  1  2  0  0  0  0
 14 15  1  0  0  0  0
M  END
> <ChemID>
103701

> <source_casrn>
1121-55-7

> <CAS>
1121-55-7

> <SMILES>
C=Cc1c[n]ccc1

> <NAME>
PYRIDINE, 3-ETHENYL-

> <preferred_name>
3-Vinylpyridine

> <iupac>
3-ethenylpyridine

> <MPID>
22647

> <dsstox_substance_id>
DTXSID90149912

> <Canonical_QSARr>
C=Cc1c[n]ccc1

> <InChI_Code_QSARr>
InChI=1S/C7H7N/c1-2-7-4-3-5-8-6-7/h2-6H,1H2

> <InChI Key_QSARr>
DPZYLEIWHTWHCU-UHFFFAOYSA-N

> <Salt_Solvent>
?

> <BP>
162.0

$$$$
103705
  -INDIGO-08031720192D

 20 20  0  0  0  0  0  0  0  0999 V2000
   -0.0000   -0.0000    0.0000 C   0  0  0  0  0  0  0  0  0  0  0  0
    0.5472   -1.5035    0.0000 H   0  0  0  0  0  0  0  0  0  0  0  0
   -0.0000    1.6000    0.0000 C   0  0  0  0  0  0  0  0  0  0  0  0
    1.5757    1.3222    0.0000 H   0  0  0  0  0  0  0  0  0  0  0  0
    0.5472    3.1035    0.0000 H   0  0  0  0  0  0  0  0  0  0  0  0
   -1.3857    2.4000    0.0000 C   0  0  0  0  0  0  0  0  0  0  0  0
   -0.3571    3.6257    0.0000 H   0  0  0  0  0  0  0  0  0  0  0  0
   -2.4141    3.6257    0.0000 H   0  0  0  0  0  0  0  0  0  0  0  0
   -2.7712    1.6000    0.0000 C   0  0  0  0  0  0  0  0  0  0  0  0
   -3.3185    3.1035    0.0000 H   0  0  0  0  0  0  0  0  0  0  0  0
   -4.3470    1.3222    0.0000 H   0  0  0  0  0  0  0  0  0  0  0  0
   -2.7712   -0.0000    0.0000 C   0  0  0  0  0  0  0  0  0  0  0  0
   -4.3470    0.2778    0.0000 H   0  0  0  0  0  0  0  0  0  0  0  0
   -3.3185   -1.5035    0.0000 H   0  0  0  0  0  0  0  0  0  0  0  0
   -1.3857   -0.8000    0.0000 C   0  0  0  0  0  0  0  0  0  0  0  0
   -2.4141   -2.0257    0.0000 H   0  0  0  0  0  0  0  0  0  0  0  0
   -0.3571   -2.0257    0.0000 H   0  0  0  0  0  0  0  0  0  0  0  0
    1.5757   -0.2778    0.0000 N   0  0  0  0  0  0  0  0  0  0  0  0
    2.1229   -1.7814    0.0000 O   0  0  0  0  0  0  0  0  0  0  0  0
    2.6042    0.9478    0.0000 O   0  0  0  0  0  0  0  0  0  0  0  0
  1  2  1  0  0  0  0
  1  3  1  0  0  0  0
  3  4  1  0  0  0  0
  3  5  1  0  0  0  0
  3  6  1  0  0  0  0
  6  7  1  0  0  0  0
  6  8  1  0  0  0  0
  6  9  1  0  0  0  0
  9 10  1  0  0  0  0
  9 11  1  0  0  0  0
  9 12  1  0  0  0  0
 12 13  1  0  0  0  0
 12 14  1  0  0  0  0
 12 15  1  0  0  0  0
 15  1  1  0  0  0  0
 15 16  1  0  0  0  0
 15 17  1  0  0  0  0
  1 18  1  0  0  0  0
 18 19  2  0  0  0  0
 18 20  1  0  0  0  0
M  CHG  2  18   1  20  -1
M  END
> <ChemID>
103705

> <source_casrn>
1122-60-7

> <CAS>
1122-60-7

> <SMILES>
[O-][N+](=O)C1CCCCC1

> <NAME>
Cyclohexane, nitro-

> <preferred_name>
Nitrocyclohexane

> <iupac>
Nitrocyclohexane

> <MPID>
22651

> <dsstox_substance_id>
DTXSID6061529

> <Canonical_QSARr>
[O-][N+](=O)C1CCCCC1

> <InChI_Code_QSARr>
InChI=1S/C6H11NO2/c8-7(9)6-4-2-1-3-5-6/h6H,1-5H2

> <InChI Key_QSARr>
NJNQUTDUIPVROZ-UHFFFAOYSA-N

> <Salt_Solvent>
?

> <BP>
205.0

$$$$
103709
  -INDIGO-08031720192D

 20 20  0  0  0  0  0  0  0  0999 V2000
   -0.0000    0.0000    0.0000 C   0  0  0  0  0  0  0  0  0  0  0  0
    1.5757   -0.2778    0.0000 H   0  0  0  0  0  0  0  0  0  0  0  0
   -1.3857    0.8000    0.0000 C   0  0  0  0  0  0  0  0  0  0  0  0
   -0.3571    2.0257    0.0000 H   0  0  0  0  0  0  0  0  0  0  0  0
   -2.4141    2.0257    0.0000 H   0  0  0  0  0  0  0  0  0  0  0  0
   -2.7712    0.0000    0.0000 C   0  0  0  0  0  0  0  0  0  0  0  0
   -3.3185    1.5035    0.0000 H   0  0  0  0  0  0  0  0  0  0  0  0
   -4.3470   -0.2778    0.0000 H   0  0  0  0  0  0  0  0  0  0  0  0
   -2.7712   -1.6000    0.0000 C   0  0  0  0  0  0  0  0  0  0  0  0
   -4.3470   -1.3221    0.0000 H   0  0  0  0  0  0  0  0  0  0  0  0
   -3.3185   -3.1036    0.0000 H   0  0  0  0  0  0  0  0  0  0  0  0
   -1.3857   -2.4000    0.0000 C   0  0  0  0  0  0  0  0  0  0  0  0
   -2.4141   -3.6257    0.0000 H   0  0  0  0  0  0  0  0  0  0  0  0
   -0.3571   -3.6257    0.0000 H   0  0  0  0  0  0  0  0  0  0  0  0
   -0.0000   -1.6000    0.0000 C   0  0  0  0  0  0  0  0  0  0  0  0
    0.5473   -3.1036    0.0000 H   0  0  0  0  0  0  0  0  0  0  0  0
    1.5757   -1.3221    0.0000 H   0  0  0  0  0  0  0  0  0  0  0  0
    0.5473    1.5035    0.0000 N   0  0  0  0  0  0  0  0  0  0  0  0
    2.1229    1.7813    0.0000 C   0  0  0  0  0  0  0  0  0  0  0  0
    3.6986    2.0592    0.0000 S   0  0  0  0  0  0  0  0  0  0  0  0
  1  2  1  0  0  0  0
  1  3  1  0  0  0  0
  3  4  1  0  0  0  0
  3  5  1  0  0  0  0
  3  6  1  0  0  0  0
  6  7  1  0  0  0  0
  6  8  1  0  0  0  0
  6  9  1  0  0  0  0
  9 10  1  0  0  0  0
  9 11  1  0  0  0  0
  9 12  1  0  0  0  0
 12 13  1  0  0  0  0
 12 14  1  0  0  0  0
 12 15  1  0  0  0  0
 15  1  1  0  0  0  0
 15 16  1  0  0  0  0
 15 17  1  0  0  0  0
  1 18  1  0  0  0  0
 18 19  2  0  0  0  0
 19 20  2  0  0  0  0
M  END
> <ChemID>
103709

> <source_casrn>
1122-82-3

> <CAS>
1122-82-3

> <SMILES>
S=C=NC1CCCCC1

> <NAME>
Cyclohexane, isothiocyanato-

> <preferred_name>
Cyclohexane, isothiocyanato-

> <iupac>
ISOTHIOCYANATOCYCLOHEXANE

> <MPID>
22655

> <dsstox_substance_id>
DTXSID5061532

> <Canonical_QSARr>
S=C=NC1CCCCC1

> <InChI_Code_QSARr>
InChI=1S/C7H11NS/c9-6-8-7-4-2-1-3-5-7/h7H,1-5H2

> <InChI Key_QSARr>
MZSJGCPBOVTKHR-UHFFFAOYSA-N

> <Salt_Solvent>
?

> <BP>
220.0

$$$$
103714
  -INDIGO-08031720192D

 24 24  0  0  0  0  0  0  0  0999 V2000
   -2.6042    1.5035    0.0000 O   0  0  0  0  0  0  0  0  0  0  0  0
   -1.5757    0.2778    0.0000 C   0  0  0  0  0  0  0  0  0  0  0  0
   -0.0000   -0.0000    0.0000 C   0  0  0  0  0  0  0  0  0  0  0  0
   -0.5473   -1.5035    0.0000 O   0  0  0  0  0  0  0  0  0  0  0  0
   -2.1229   -1.7813    0.0000 H   0  0  0  0  0  0  0  0  0  0  0  0
   -0.0000    1.6000    0.0000 C   0  0  0  0  0  0  0  0  0  0  0  0
   -1.5757    1.3222    0.0000 H   0  0  0  0  0  0  0  0  0  0  0  0
   -0.5473    3.1035    0.0000 H   0  0  0  0  0  0  0  0  0  0  0  0
    1.3856    2.4000    0.0000 C   0  0  0  0  0  0  0  0  0  0  0  0
    0.3571    3.6257    0.0000 H   0  0  0  0  0  0  0  0  0  0  0  0
    2.4140    3.6257    0.0000 H   0  0  0  0  0  0  0  0  0  0  0  0
    2.7713    1.6000    0.0000 C   0  0  0  0  0  0  0  0  0  0  0  0
    3.3186    3.1035    0.0000 H   0  0  0  0  0  0  0  0  0  0  0  0
    4.3470    1.3222    0.0000 H   0  0  0  0  0  0  0  0  0  0  0  0
    2.7713   -0.0000    0.0000 C   0  0  0  0  0  0  0  0  0  0  0  0
    4.3470    0.2778    0.0000 H   0  0  0  0  0  0  0  0  0  0  0  0
    3.3186   -1.5035    0.0000 H   0  0  0  0  0  0  0  0  0  0  0  0
    1.3856   -0.8000    0.0000 C   0  0  0  0  0  0  0  0  0  0  0  0
    2.4140   -2.0256    0.0000 H   0  0  0  0  0  0  0  0  0  0  0  0
    0.3571   -2.0256    0.0000 H   0  0  0  0  0  0  0  0  0  0  0  0
   -2.6042   -0.9478    0.0000 C   0  0  0  0  0  0  0  0  0  0  0  0
   -4.1798   -0.6700    0.0000 H   0  0  0  0  0  0  0  0  0  0  0  0
   -3.6326   -2.1735    0.0000 H   0  0  0  0  0  0  0  0  0  0  0  0
   -3.1514    0.5557    0.0000 H   0  0  0  0  0  0  0  0  0  0  0  0
  1  2  2  0  0  0  0
  2  3  1  0  0  0  0
  3  4  1  0  0  0  0
  4  5  1  0  0  0  0
  3  6  1  0  0  0  0
  6  7  1  0  0  0  0
  6  8  1  0  0  0  0
  6  9  1  0  0  0  0
  9 10  1  0  0  0  0
  9 11  1  0  0  0  0
  9 12  1  0  0  0  0
 12 13  1  0  0  0  0
 12 14  1  0  0  0  0
 12 15  1  0  0  0  0
 15 16  1  0  0  0  0
 15 17  1  0  0  0  0
 15 18  1  0  0  0  0
 18  3  1  0  0  0  0
 18 19  1  0  0  0  0
 18 20  1  0  0  0  0
  2 21  1  0  0  0  0
 21 22  1  0  0  0  0
 21 23  1  0  0  0  0
 21 24  1  0  0  0  0
M  END
> <ChemID>
103714

> <source_casrn>
1123-27-9

> <CAS>
1123-27-9

> <SMILES>
CC(=O)C1(O)CCCCC1

> <NAME>
Ethanone, 1-(1-hydroxycyclohexyl)-

> <preferred_name>
Ethanone, 1-(1-hydroxycyclohexyl)-

> <iupac>
1-(1-Hydroxycyclohexyl)ethanone

> <MPID>
22659

> <dsstox_substance_id>
DTXSID5061536

> <Canonical_QSARr>
CC(=O)C1(O)CCCCC1

> <InChI_Code_QSARr>
InChI=1S/C8H14O2/c1-7(9)8(10)5-3-2-4-6-8/h10H,2-6H2,1H3

> <InChI Key_QSARr>
JKAKPUWJSRMKFH-UHFFFAOYSA-N

> <Salt_Solvent>
?

> <BP>
125.5

$$$$
103718
  -INDIGO-08031720192D

 16 16  0  0  0  0  0  0  0  0999 V2000
    0.0000    2.7713    0.0000 Cl  0  0  0  0  0  0  0  0  0  0  0  0
   -0.8001    1.3856    0.0000 C   0  0  0  0  0  0  0  0  0  0  0  0
    0.0000   -0.0000    0.0000 C   0  0  0  0  0  0  0  0  0  0  0  0
    1.6000   -0.0000    0.0000 C   0  0  0  0  0  0  0  0  0  0  0  0
    3.2000   -0.0000    0.0000 H   0  0  0  0  0  0  0  0  0  0  0  0
    2.4001    1.3856    0.0000 H   0  0  0  0  0  0  0  0  0  0  0  0
    2.4001   -1.3856    0.0000 H   0  0  0  0  0  0  0  0  0  0  0  0
   -0.7999   -1.3856    0.0000 C   0  0  0  0  0  0  0  0  0  0  0  0
    0.0000   -2.7713    0.0000 H   0  0  0  0  0  0  0  0  0  0  0  0
   -2.4001   -1.3856    0.0000 C   0  0  0  0  0  0  0  0  0  0  0  0
   -3.2000   -2.7713    0.0000 O   0  0  0  0  0  0  0  0  0  0  0  0
   -4.8000   -2.7713    0.0000 H   0  0  0  0  0  0  0  0  0  0  0  0
   -3.2000   -0.0000    0.0000 C   0  0  0  0  0  0  0  0  0  0  0  0
   -4.8000   -0.0000    0.0000 Cl  0  0  0  0  0  0  0  0  0  0  0  0
   -2.4001    1.3856    0.0000 C   0  0  0  0  0  0  0  0  0  0  0  0
   -3.2000    2.7713    0.0000 H   0  0  0  0  0  0  0  0  0  0  0  0
  1  2  1  0  0  0  0
  2  3  1  0  0  0  0
  3  4  1  0  0  0  0
  4  5  1  0  0  0  0
  4  6  1  0  0  0  0
  4  7  1  0  0  0  0
  3  8  2  0  0  0  0
  8  9  1  0  0  0  0
  8 10  1  0  0  0  0
 10 11  1  0  0  0  0
 11 12  1  0  0  0  0
 10 13  2  0  0  0  0
 13 14  1  0  0  0  0
 13 15  1  0  0  0  0
 15  2  2  0  0  0  0
 15 16  1  0  0  0  0
M  END
> <ChemID>
103718

> <source_casrn>
1124-07-8

> <CAS>
1124-07-8

> <SMILES>
Cc1cc(O)c(Cl)cc1Cl

> <NAME>
2,4-Dichloro-5-methylphenol

> <preferred_name>
4,6-Dichloro-m-cresol

> <iupac>
2,4-Dichloro-5-methylphenol

> <MPID>
22663

> <dsstox_substance_id>
DTXSID10150025

> <Canonical_QSARr>
Cc1cc(O)c(Cl)cc1Cl

> <InChI_Code_QSARr>
InChI=1S/C7H6Cl2O/c1-4-2-7(10)6(9)3-5(4)8/h2-3,10H,1H3

> <InChI Key_QSARr>
NDCNJVOXMCCKBP-UHFFFAOYSA-N

> <Salt_Solvent>
?

> <BP>
234.0

$$$$
103722
  -INDIGO-08031720192D

 23 24  0  0  0  0  0  0  0  0999 V2000
   -2.7713   -0.0000    0.0000 C   0  0  0  0  0  0  0  0  0  0  0  0
   -1.3857    0.8000    0.0000 C   0  0  0  0  0  0  0  0  0  0  0  0
   -2.4141    2.0257    0.0000 H   0  0  0  0  0  0  0  0  0  0  0  0
   -0.3572    2.0257    0.0000 H   0  0  0  0  0  0  0  0  0  0  0  0
   -0.0001   -0.0000    0.0000 C   0  0  0  0  0  0  0  0  0  0  0  0
    0.5473    1.5035    0.0000 H   0  0  0  0  0  0  0  0  0  0  0  0
    1.5757   -0.2779    0.0000 H   0  0  0  0  0  0  0  0  0  0  0  0
   -0.0001   -1.6000    0.0000 C   0  0  0  0  0  0  0  0  0  0  0  0
    1.5757   -1.3221    0.0000 H   0  0  0  0  0  0  0  0  0  0  0  0
    0.5473   -3.1035    0.0000 H   0  0  0  0  0  0  0  0  0  0  0  0
   -1.3857   -2.4000    0.0000 C   0  0  0  0  0  0  0  0  0  0  0  0
   -0.3572   -3.6257    0.0000 H   0  0  0  0  0  0  0  0  0  0  0  0
   -2.4141   -3.6257    0.0000 H   0  0  0  0  0  0  0  0  0  0  0  0
   -2.7713   -1.6000    0.0000 C   0  0  0  0  0  0  0  0  0  0  0  0
   -4.1569   -2.4000    0.0000 C   0  0  0  0  0  0  0  0  0  0  0  0
   -4.1569   -4.0000    0.0000 H   0  0  0  0  0  0  0  0  0  0  0  0
   -5.5426   -1.6000    0.0000 C   0  0  0  0  0  0  0  0  0  0  0  0
   -6.9282   -2.4000    0.0000 H   0  0  0  0  0  0  0  0  0  0  0  0
   -5.5426   -0.0000    0.0000 C   0  0  0  0  0  0  0  0  0  0  0  0
   -6.9282    0.8000    0.0000 O   0  0  0  0  0  0  0  0  0  0  0  0
   -8.3138   -0.0000    0.0000 H   0  0  0  0  0  0  0  0  0  0  0  0
   -4.1569    0.8000    0.0000 C   0  0  0  0  0  0  0  0  0  0  0  0
   -4.1569    2.4000    0.0000 H   0  0  0  0  0  0  0  0  0  0  0  0
  1  2  1  0  0  0  0
  2  3  1  0  0  0  0
  2  4  1  0  0  0  0
  2  5  1  0  0  0  0
  5  6  1  0  0  0  0
  5  7  1  0  0  0  0
  5  8  1  0  0  0  0
  8  9  1  0  0  0  0
  8 10  1  0  0  0  0
  8 11  1  0  0  0  0
 11 12  1  0  0  0  0
 11 13  1  0  0  0  0
 11 14  1  0  0  0  0
 14  1  1  0  0  0  0
 14 15  2  0  0  0  0
 15 16  1  0  0  0  0
 15 17  1  0  0  0  0
 17 18  1  0  0  0  0
 17 19  2  0  0  0  0
 19 20  1  0  0  0  0
 20 21  1  0  0  0  0
 19 22  1  0  0  0  0
 22  1  2  0  0  0  0
 22 23  1  0  0  0  0
M  END
> <ChemID>
103722

> <source_casrn>
1125-78-6

> <CAS>
NOCAS_870851

> <SMILES>
Oc1cc2CCCCc2cc1

> <NAME>
2-NAPHTHALENOL, 5,6,7,8-TETRAHYDRO-

> <preferred_name>


> <iupac>


> <MPID>
22667

> <dsstox_substance_id>
DTXSID50870851

> <Canonical_QSARr>
Oc1cc2CCCCc2cc1

> <InChI_Code_QSARr>
InChI=1S/C10H12O/c11-10-6-5-8-3-1-2-4-9(8)7-10/h5-7,11H,1-4H2

> <InChI Key_QSARr>
UMKXSOXZAXIOPJ-UHFFFAOYSA-N

> <Salt_Solvent>
?

> <BP>
275.5

$$$$
103726
  -INDIGO-08031720192D

 25 25  0  0  0  0  0  0  0  0999 V2000
    2.7712   -0.0000    0.0000 C   0  0  0  0  0  0  0  0  0  0  0  0
    4.1569    0.8000    0.0000 H   0  0  0  0  0  0  0  0  0  0  0  0
    4.1569   -0.8000    0.0000 H   0  0  0  0  0  0  0  0  0  0  0  0
    2.7712    1.6000    0.0000 H   0  0  0  0  0  0  0  0  0  0  0  0
    1.3857   -0.8000    0.0000 C   0  0  0  0  0  0  0  0  0  0  0  0
    0.7733   -2.2782    0.0000 H   0  0  0  0  0  0  0  0  0  0  0  0
    1.9979   -2.2782    0.0000 H   0  0  0  0  0  0  0  0  0  0  0  0
    0.0000   -0.0000    0.0000 C   0  0  0  0  0  0  0  0  0  0  0  0
    0.6124    1.4782    0.0000 H   0  0  0  0  0  0  0  0  0  0  0  0
   -0.6124    1.4782    0.0000 H   0  0  0  0  0  0  0  0  0  0  0  0
   -1.3857   -0.8000    0.0000 C   0  0  0  0  0  0  0  0  0  0  0  0
   -1.9979   -2.2782    0.0000 H   0  0  0  0  0  0  0  0  0  0  0  0
   -0.7733   -2.2782    0.0000 H   0  0  0  0  0  0  0  0  0  0  0  0
   -2.7712   -0.0000    0.0000 O   0  0  0  0  0  0  0  0  0  0  0  0
   -4.1569   -0.8000    0.0000 C   0  0  0  0  0  0  0  0  0  0  0  0
   -4.1569   -2.4000    0.0000 C   0  0  0  0  0  0  0  0  0  0  0  0
   -2.7712   -3.2000    0.0000 H   0  0  0  0  0  0  0  0  0  0  0  0
   -5.5426   -3.2000    0.0000 C   0  0  0  0  0  0  0  0  0  0  0  0
   -5.5426   -4.8000    0.0000 H   0  0  0  0  0  0  0  0  0  0  0  0
   -6.9281   -2.4000    0.0000 C   0  0  0  0  0  0  0  0  0  0  0  0
   -8.3138   -3.2000    0.0000 H   0  0  0  0  0  0  0  0  0  0  0  0
   -6.9281   -0.8000    0.0000 C   0  0  0  0  0  0  0  0  0  0  0  0
   -8.3138   -0.0000    0.0000 H   0  0  0  0  0  0  0  0  0  0  0  0
   -5.5426   -0.0000    0.0000 C   0  0  0  0  0  0  0  0  0  0  0  0
   -5.5426    1.6000    0.0000 H   0  0  0  0  0  0  0  0  0  0  0  0
  1  2  1  0  0  0  0
  1  3  1  0  0  0  0
  1  4  1  0  0  0  0
  1  5  1  0  0  0  0
  5  6  1  0  0  0  0
  5  7  1  0  0  0  0
  5  8  1  0  0  0  0
  8  9  1  0  0  0  0
  8 10  1  0  0  0  0
  8 11  1  0  0  0  0
 11 12  1  0  0  0  0
 11 13  1  0  0  0  0
 11 14  1  0  0  0  0
 14 15  1  0  0  0  0
 15 16  1  0  0  0  0
 16 17  1  0  0  0  0
 16 18  2  0  0  0  0
 18 19  1  0  0  0  0
 18 20  1  0  0  0  0
 20 21  1  0  0  0  0
 20 22  2  0  0  0  0
 22 23  1  0  0  0  0
 22 24  1  0  0  0  0
 24 15  2  0  0  0  0
 24 25  1  0  0  0  0
M  END
> <ChemID>
103726

> <source_casrn>
1126-79-0

> <CAS>
1126-79-0

> <SMILES>
CCCCOc1ccccc1

> <NAME>
BUTYL PHENYL ETHER

> <preferred_name>
Butyl phenyl ether

> <iupac>
butoxybenzene

> <MPID>
22671

> <dsstox_substance_id>
DTXSID0022149

> <Canonical_QSARr>
CCCCOc1ccccc1

> <InChI_Code_QSARr>
InChI=1S/C10H14O/c1-2-3-9-11-10-7-5-4-6-8-10/h4-8H,2-3,9H2,1H3

> <InChI Key_QSARr>
YFNONBGXNFCTMM-UHFFFAOYSA-N

> <Salt_Solvent>
?

> <BP>
210.0

$$$$
103730
  -INDIGO-08031720192D

 30 30  0  0  0  0  0  0  0  0999 V2000
   -3.0071   -1.0945    0.0000 O   0  0  0  0  0  0  0  0  0  0  0  0
   -2.7292    0.4812    0.0000 C   0  0  0  0  0  0  0  0  0  0  0  0
   -1.2257    1.0284    0.0000 O   0  0  0  0  0  0  0  0  0  0  0  0
   -0.0001    0.0000    0.0000 C   0  0  0  0  0  0  0  0  0  0  0  0
   -1.2257   -1.0284    0.0000 H   0  0  0  0  0  0  0  0  0  0  0  0
    0.8001    1.3857    0.0000 C   0  0  0  0  0  0  0  0  0  0  0  0
   -0.7036    1.9328    0.0000 H   0  0  0  0  0  0  0  0  0  0  0  0
    1.0778    2.9614    0.0000 H   0  0  0  0  0  0  0  0  0  0  0  0
    2.4000    1.3857    0.0000 C   0  0  0  0  0  0  0  0  0  0  0  0
    2.1222    2.9614    0.0000 H   0  0  0  0  0  0  0  0  0  0  0  0
    3.9035    1.9328    0.0000 H   0  0  0  0  0  0  0  0  0  0  0  0
    3.2000    0.0000    0.0000 C   0  0  0  0  0  0  0  0  0  0  0  0
    4.4257    1.0284    0.0000 H   0  0  0  0  0  0  0  0  0  0  0  0
    4.4257   -1.0284    0.0000 H   0  0  0  0  0  0  0  0  0  0  0  0
    2.4000   -1.3857    0.0000 C   0  0  0  0  0  0  0  0  0  0  0  0
    3.9035   -1.9329    0.0000 H   0  0  0  0  0  0  0  0  0  0  0  0
    2.1222   -2.9613    0.0000 H   0  0  0  0  0  0  0  0  0  0  0  0
    0.8001   -1.3857    0.0000 C   0  0  0  0  0  0  0  0  0  0  0  0
    1.0778   -2.9613    0.0000 H   0  0  0  0  0  0  0  0  0  0  0  0
   -0.7036   -1.9329    0.0000 H   0  0  0  0  0  0  0  0  0  0  0  0
   -3.9549    1.5097    0.0000 C   0  0  0  0  0  0  0  0  0  0  0  0
   -2.9264    2.7354    0.0000 H   0  0  0  0  0  0  0  0  0  0  0  0
   -5.1805    2.5382    0.0000 C   0  0  0  0  0  0  0  0  0  0  0  0
   -6.4062    3.5666    0.0000 H   0  0  0  0  0  0  0  0  0  0  0  0
   -6.6840    1.9909    0.0000 H   0  0  0  0  0  0  0  0  0  0  0  0
   -4.9027    4.1138    0.0000 H   0  0  0  0  0  0  0  0  0  0  0  0
   -4.9834    0.2841    0.0000 C   0  0  0  0  0  0  0  0  0  0  0  0
   -6.0117   -0.9416    0.0000 H   0  0  0  0  0  0  0  0  0  0  0  0
   -6.5589    0.5618    0.0000 H   0  0  0  0  0  0  0  0  0  0  0  0
   -4.4362   -1.2195    0.0000 H   0  0  0  0  0  0  0  0  0  0  0  0
  1  2  2  0  0  0  0
  2  3  1  0  0  0  0
  3  4  1  0  0  0  0
  4  5  1  0  0  0  0
  4  6  1  0  0  0  0
  6  7  1  0  0  0  0
  6  8  1  0  0  0  0
  6  9  1  0  0  0  0
  9 10  1  0  0  0  0
  9 11  1  0  0  0  0
  9 12  1  0  0  0  0
 12 13  1  0  0  0  0
 12 14  1  0  0  0  0
 12 15  1  0  0  0  0
 15 16  1  0  0  0  0
 15 17  1  0  0  0  0
 15 18  1  0  0  0  0
 18  4  1  0  0  0  0
 18 19  1  0  0  0  0
 18 20  1  0  0  0  0
  2 21  1  0  0  0  0
 21 22  1  0  0  0  0
 21 23  1  0  0  0  0
 23 24  1  0  0  0  0
 23 25  1  0  0  0  0
 23 26  1  0  0  0  0
 21 27  1  0  0  0  0
 27 28  1  0  0  0  0
 27 29  1  0  0  0  0
 27 30  1  0  0  0  0
M  END
> <ChemID>
103730

> <source_casrn>
1129-47-1

> <CAS>
1129-47-1

> <SMILES>
CC(C)C(=O)OC1CCCCC1

> <NAME>
Propanoic acid, 2-methyl-, cyclohexyl ester

> <preferred_name>
Propanoic acid, 2-methyl-, cyclohexyl ester

> <iupac>
cyclohexyl 2-methylpropanoate

> <MPID>
22675

> <dsstox_substance_id>
DTXSID4061543

> <Canonical_QSARr>
CC(C)C(=O)OC1CCCCC1

> <InChI_Code_QSARr>
InChI=1S/C10H18O2/c1-8(2)10(11)12-9-6-4-3-5-7-9/h8-9H,3-7H2,1-2H3

> <InChI Key_QSARr>
IYYXBWAISHVFEX-UHFFFAOYSA-N

> <Salt_Solvent>
?

> <BP>
204.0

$$$$
103734
  -INDIGO-08031720192D

 25 25  0  0  0  0  0  0  0  0999 V2000
    2.4001    1.3856    0.0000 C   0  0  0  0  0  0  0  0  0  0  0  0
    3.2001    0.0000    0.0000 C   0  0  0  0  0  0  0  0  0  0  0  0
    4.8000    0.0000    0.0000 O   0  0  0  0  0  0  0  0  0  0  0  0
    5.6000   -1.3856    0.0000 C   0  0  0  0  0  0  0  0  0  0  0  0
    6.4000   -2.7713    0.0000 H   0  0  0  0  0  0  0  0  0  0  0  0
    7.2000   -1.3856    0.0000 H   0  0  0  0  0  0  0  0  0  0  0  0
    4.8000   -2.7713    0.0000 H   0  0  0  0  0  0  0  0  0  0  0  0
    2.4001   -1.3856    0.0000 C   0  0  0  0  0  0  0  0  0  0  0  0
    3.2001   -2.7713    0.0000 H   0  0  0  0  0  0  0  0  0  0  0  0
    0.7999   -1.3856    0.0000 C   0  0  0  0  0  0  0  0  0  0  0  0
   -0.0001   -2.7713    0.0000 H   0  0  0  0  0  0  0  0  0  0  0  0
   -0.0001    0.0000    0.0000 C   0  0  0  0  0  0  0  0  0  0  0  0
   -1.6000    0.0000    0.0000 C   0  0  0  0  0  0  0  0  0  0  0  0
   -2.4000   -1.3856    0.0000 C   0  0  0  0  0  0  0  0  0  0  0  0
   -3.2000   -2.7713    0.0000 H   0  0  0  0  0  0  0  0  0  0  0  0
   -4.0000   -1.3856    0.0000 H   0  0  0  0  0  0  0  0  0  0  0  0
   -1.6000   -2.7713    0.0000 H   0  0  0  0  0  0  0  0  0  0  0  0
   -2.4000    1.3856    0.0000 O   0  0  0  0  0  0  0  0  0  0  0  0
    0.7999    1.3856    0.0000 C   0  0  0  0  0  0  0  0  0  0  0  0
   -0.0001    2.7713    0.0000 H   0  0  0  0  0  0  0  0  0  0  0  0
    3.2001    2.7713    0.0000 O   0  0  0  0  0  0  0  0  0  0  0  0
    4.8000    2.7713    0.0000 C   0  0  0  0  0  0  0  0  0  0  0  0
    5.6000    4.1569    0.0000 H   0  0  0  0  0  0  0  0  0  0  0  0
    6.4000    2.7713    0.0000 H   0  0  0  0  0  0  0  0  0  0  0  0
    4.0000    4.1569    0.0000 H   0  0  0  0  0  0  0  0  0  0  0  0
  1  2  1  0  0  0  0
  2  3  1  0  0  0  0
  3  4  1  0  0  0  0
  4  5  1  0  0  0  0
  4  6  1  0  0  0  0
  4  7  1  0  0  0  0
  2  8  2  0  0  0  0
  8  9  1  0  0  0  0
  8 10  1  0  0  0  0
 10 11  1  0  0  0  0
 10 12  2  0  0  0  0
 12 13  1  0  0  0  0
 13 14  1  0  0  0  0
 14 15  1  0  0  0  0
 14 16  1  0  0  0  0
 14 17  1  0  0  0  0
 13 18  2  0  0  0  0
 12 19  1  0  0  0  0
 19  1  2  0  0  0  0
 19 20  1  0  0  0  0
  1 21  1  0  0  0  0
 21 22  1  0  0  0  0
 22 23  1  0  0  0  0
 22 24  1  0  0  0  0
 22 25  1  0  0  0  0
M  END
> <ChemID>
103734

> <source_casrn>
1131-62-0

> <CAS>
1131-62-0

> <SMILES>
CC(=O)c1cc(OC)c(cc1)OC

> <NAME>
Ethanone, 1-(3,4-dimethoxyphenyl)-

> <preferred_name>
Ethanone, 1-(3,4-dimethoxyphenyl)-

> <iupac>
1-(3,4-dimethoxyphenyl)ethanone

> <MPID>
22679

> <dsstox_substance_id>
DTXSID4061549

> <Canonical_QSARr>
CC(=O)c1cc(OC)c(cc1)OC

> <InChI_Code_QSARr>
InChI=1S/C10H12O3/c1-7(11)8-4-5-9(12-2)10(6-8)13-3/h4-6H,1-3H3

> <InChI Key_QSARr>
IQZLUWLMQNGTIW-UHFFFAOYSA-N

> <Salt_Solvent>
?

> <BP>
287.0

$$$$
103739
  -INDIGO-08031720192D

 30 31  0  0  0  0  0  0  0  0999 V2000
   -2.7712    1.6000    0.0000 O   0  0  0  0  0  0  0  0  0  0  0  0
   -2.7712    0.0000    0.0000 C   0  0  0  0  0  0  0  0  0  0  0  0
   -1.3856   -0.8001    0.0000 C   0  0  0  0  0  0  0  0  0  0  0  0
   -0.0000    0.0000    0.0000 C   0  0  0  0  0  0  0  0  0  0  0  0
   -0.0000    1.6000    0.0000 C   0  0  0  0  0  0  0  0  0  0  0  0
   -0.0000    3.2000    0.0000 H   0  0  0  0  0  0  0  0  0  0  0  0
    1.3856    2.4001    0.0000 H   0  0  0  0  0  0  0  0  0  0  0  0
   -1.3856    2.4001    0.0000 H   0  0  0  0  0  0  0  0  0  0  0  0
    1.3856   -0.7999    0.0000 C   0  0  0  0  0  0  0  0  0  0  0  0
    2.7713    0.0000    0.0000 H   0  0  0  0  0  0  0  0  0  0  0  0
    1.3856   -2.4001    0.0000 C   0  0  0  0  0  0  0  0  0  0  0  0
    2.7713   -3.2000    0.0000 C   0  0  0  0  0  0  0  0  0  0  0  0
    4.1569   -4.0001    0.0000 H   0  0  0  0  0  0  0  0  0  0  0  0
    2.7713   -4.8000    0.0000 H   0  0  0  0  0  0  0  0  0  0  0  0
    4.1569   -2.4001    0.0000 H   0  0  0  0  0  0  0  0  0  0  0  0
   -0.0000   -3.2000    0.0000 C   0  0  0  0  0  0  0  0  0  0  0  0
   -0.0000   -4.8000    0.0000 H   0  0  0  0  0  0  0  0  0  0  0  0
   -1.3856   -2.4001    0.0000 C   0  0  0  0  0  0  0  0  0  0  0  0
   -2.7712   -3.2000    0.0000 H   0  0  0  0  0  0  0  0  0  0  0  0
   -4.3470   -0.2778    0.0000 C   0  0  0  0  0  0  0  0  0  0  0  0
   -4.8943   -1.7814    0.0000 C   0  0  0  0  0  0  0  0  0  0  0  0
   -3.8656   -3.0070    0.0000 H   0  0  0  0  0  0  0  0  0  0  0  0
   -6.4698   -2.0592    0.0000 C   0  0  0  0  0  0  0  0  0  0  0  0
   -7.0172   -3.5627    0.0000 H   0  0  0  0  0  0  0  0  0  0  0  0
   -7.4983   -0.8335    0.0000 C   0  0  0  0  0  0  0  0  0  0  0  0
   -9.0741   -1.1113    0.0000 H   0  0  0  0  0  0  0  0  0  0  0  0
   -6.9512    0.6701    0.0000 C   0  0  0  0  0  0  0  0  0  0  0  0
   -7.9796    1.8957    0.0000 H   0  0  0  0  0  0  0  0  0  0  0  0
   -5.3754    0.9479    0.0000 C   0  0  0  0  0  0  0  0  0  0  0  0
   -4.8283    2.4513    0.0000 H   0  0  0  0  0  0  0  0  0  0  0  0
  1  2  2  0  0  0  0
  2  3  1  0  0  0  0
  3  4  1  0  0  0  0
  4  5  1  0  0  0  0
  5  6  1  0  0  0  0
  5  7  1  0  0  0  0
  5  8  1  0  0  0  0
  4  9  2  0  0  0  0
  9 10  1  0  0  0  0
  9 11  1  0  0  0  0
 11 12  1  0  0  0  0
 12 13  1  0  0  0  0
 12 14  1  0  0  0  0
 12 15  1  0  0  0  0
 11 16  2  0  0  0  0
 16 17  1  0  0  0  0
 16 18  1  0  0  0  0
 18  3  2  0  0  0  0
 18 19  1  0  0  0  0
  2 20  1  0  0  0  0
 20 21  1  0  0  0  0
 21 22  1  0  0  0  0
 21 23  2  0  0  0  0
 23 24  1  0  0  0  0
 23 25  1  0  0  0  0
 25 26  1  0  0  0  0
 25 27  2  0  0  0  0
 27 28  1  0  0  0  0
 27 29  1  0  0  0  0
 29 20  2  0  0  0  0
 29 30  1  0  0  0  0
M  END
> <ChemID>
103739

> <source_casrn>
1140-14-3

> <CAS>
1140-14-3

> <SMILES>
Cc1cc(C)c(cc1)C(=O)c1ccccc1

> <NAME>
2,4-Dimethylphenyl phenyl ketone

> <preferred_name>
2,4-Dimethylbenzophenone

> <iupac>
(2,4-dimethylphenyl)-phenylmethanone

> <MPID>
22683

> <dsstox_substance_id>
DTXSID90150629

> <Canonical_QSARr>
Cc1cc(C)c(cc1)C(=O)c1ccccc1

> <InChI_Code_QSARr>
InChI=1S/C15H14O/c1-11-8-9-14(12(2)10-11)15(16)13-6-4-3-5-7-13/h3-10H,1-2H3

> <InChI Key_QSARr>
UYSQHMXRROFKRN-UHFFFAOYSA-N

> <Salt_Solvent>
?

> <BP>
321.5

$$$$
103743
  -INDIGO-08031720192D

 21 20  0  0  0  0  0  0  0  0999 V2000
    2.7712    0.0000    0.0000 O   0  0  0  0  0  0  0  0  0  0  0  0
    4.1569    0.8000    0.0000 H   0  0  0  0  0  0  0  0  0  0  0  0
    1.3856    0.8000    0.0000 C   0  0  0  0  0  0  0  0  0  0  0  0
    1.9979    2.2782    0.0000 H   0  0  0  0  0  0  0  0  0  0  0  0
    0.7734    2.2782    0.0000 H   0  0  0  0  0  0  0  0  0  0  0  0
   -0.0001    0.0000    0.0000 C   0  0  0  0  0  0  0  0  0  0  0  0
   -1.3856   -0.8000    0.0000 C   0  0  0  0  0  0  0  0  0  0  0  0
   -1.9979   -2.2782    0.0000 H   0  0  0  0  0  0  0  0  0  0  0  0
   -0.7734   -2.2782    0.0000 H   0  0  0  0  0  0  0  0  0  0  0  0
   -2.7713    0.0000    0.0000 C   0  0  0  0  0  0  0  0  0  0  0  0
   -4.1569   -0.8000    0.0000 H   0  0  0  0  0  0  0  0  0  0  0  0
   -4.1569    0.8000    0.0000 H   0  0  0  0  0  0  0  0  0  0  0  0
   -2.7712   -1.6000    0.0000 H   0  0  0  0  0  0  0  0  0  0  0  0
   -0.8000    1.3857    0.0000 C   0  0  0  0  0  0  0  0  0  0  0  0
   -1.6000    2.7713    0.0000 H   0  0  0  0  0  0  0  0  0  0  0  0
   -0.2528    2.8891    0.0000 H   0  0  0  0  0  0  0  0  0  0  0  0
   -2.4000    1.3857    0.0000 H   0  0  0  0  0  0  0  0  0  0  0  0
    0.8001   -1.3857    0.0000 C   0  0  0  0  0  0  0  0  0  0  0  0
    1.6000   -2.7713    0.0000 H   0  0  0  0  0  0  0  0  0  0  0  0
    0.2528   -2.8891    0.0000 H   0  0  0  0  0  0  0  0  0  0  0  0
    2.4000   -1.3857    0.0000 H   0  0  0  0  0  0  0  0  0  0  0  0
  1  2  1  0  0  0  0
  1  3  1  0  0  0  0
  3  4  1  0  0  0  0
  3  5  1  0  0  0  0
  3  6  1  0  0  0  0
  6  7  1  0  0  0  0
  7  8  1  0  0  0  0
  7  9  1  0  0  0  0
  7 10  1  0  0  0  0
 10 11  1  0  0  0  0
 10 12  1  0  0  0  0
 10 13  1  0  0  0  0
  6 14  1  0  0  0  0
 14 15  1  0  0  0  0
 14 16  1  0  0  0  0
 14 17  1  0  0  0  0
  6 18  1  0  0  0  0
 18 19  1  0  0  0  0
 18 20  1  0  0  0  0
 18 21  1  0  0  0  0
M  END
> <ChemID>
103743

> <source_casrn>
1185-33-7

> <CAS>
1185-33-7

> <SMILES>
CCC(C)(C)CO

> <NAME>
2,2-DIMETHYL-1-BUTANOL

> <preferred_name>
2,2-Dimethylbutanol

> <iupac>
2,2-Dimethylbutan-1-ol

> <MPID>
22687

> <dsstox_substance_id>
DTXSID00152139

> <Canonical_QSARr>
CCC(C)(C)CO

> <InChI_Code_QSARr>
InChI=1S/C6H14O/c1-4-6(2,3)5-7/h7H,4-5H2,1-3H3

> <InChI Key_QSARr>
XRMVWAKMXZNZIL-UHFFFAOYSA-N

> <Salt_Solvent>
?

> <BP>
136.5

$$$$
103747
  -INDIGO-08031720192D

 15 14  0  0  0  0  0  0  0  0999 V2000
   -1.3857    0.8000    0.0000 C   0  0  0  0  0  0  0  0  0  0  0  0
    0.0000    0.0000    0.0000 C   0  0  0  0  0  0  0  0  0  0  0  0
   -0.6122   -1.4782    0.0000 H   0  0  0  0  0  0  0  0  0  0  0  0
    0.6122   -1.4782    0.0000 H   0  0  0  0  0  0  0  0  0  0  0  0
    1.3856    0.8000    0.0000 C   0  0  0  0  0  0  0  0  0  0  0  0
    2.7713    1.6000    0.0000 H   0  0  0  0  0  0  0  0  0  0  0  0
    2.7713    0.0000    0.0000 H   0  0  0  0  0  0  0  0  0  0  0  0
    1.3856    2.4000    0.0000 H   0  0  0  0  0  0  0  0  0  0  0  0
   -2.7713    0.0000    0.0000 N   0  0  0  0  0  0  0  0  0  0  0  0
   -2.7713   -1.6000    0.0000 H   0  0  0  0  0  0  0  0  0  0  0  0
   -4.1569    0.8000    0.0000 C   0  0  0  0  0  0  0  0  0  0  0  0
   -5.5426    1.6000    0.0000 H   0  0  0  0  0  0  0  0  0  0  0  0
   -5.5426    0.0000    0.0000 H   0  0  0  0  0  0  0  0  0  0  0  0
   -4.1569    2.4000    0.0000 H   0  0  0  0  0  0  0  0  0  0  0  0
   -1.3857    2.4000    0.0000 O   0  0  0  0  0  0  0  0  0  0  0  0
  1  2  1  0  0  0  0
  2  3  1  0  0  0  0
  2  4  1  0  0  0  0
  2  5  1  0  0  0  0
  5  6  1  0  0  0  0
  5  7  1  0  0  0  0
  5  8  1  0  0  0  0
  1  9  1  0  0  0  0
  9 10  1  0  0  0  0
  9 11  1  0  0  0  0
 11 12  1  0  0  0  0
 11 13  1  0  0  0  0
 11 14  1  0  0  0  0
  1 15  2  0  0  0  0
M  END
> <ChemID>
103747

> <source_casrn>
1187-58-2

> <CAS>
1187-58-2

> <SMILES>
CCC(=O)NC

> <NAME>
N-METHYL PROPIONAMIDE

> <preferred_name>
Propanamide, N-methyl-

> <iupac>
N-Methylpropanamide

> <MPID>
22691

> <dsstox_substance_id>
DTXSID0061583

> <Canonical_QSARr>
CCC(=O)NC

> <InChI_Code_QSARr>
InChI=1S/C4H9NO/c1-3-4(6)5-2/h3H2,1-2H3,(H,5,6)

> <InChI Key_QSARr>
QJQAMHYHNCADNR-UHFFFAOYSA-N

> <Salt_Solvent>
?

> <BP>
148.0

$$$$
103751
  -INDIGO-08031720192D

 14 13  0  0  0  0  0  0  0  0999 V2000
    1.3856   -0.8000    0.0000 C   0  0  0  0  0  0  0  0  0  0  0  0
    2.7713   -1.6000    0.0000 H   0  0  0  0  0  0  0  0  0  0  0  0
    2.7713    0.0000    0.0000 H   0  0  0  0  0  0  0  0  0  0  0  0
    0.0000    0.0000    0.0000 C   0  0  0  0  0  0  0  0  0  0  0  0
    0.6123    1.4782    0.0000 H   0  0  0  0  0  0  0  0  0  0  0  0
   -0.6123    1.4782    0.0000 H   0  0  0  0  0  0  0  0  0  0  0  0
   -1.3856   -0.8000    0.0000 C   0  0  0  0  0  0  0  0  0  0  0  0
   -1.9980   -2.2782    0.0000 H   0  0  0  0  0  0  0  0  0  0  0  0
   -2.7713    0.0000    0.0000 C   0  0  0  0  0  0  0  0  0  0  0  0
   -4.1569    0.8000    0.0000 H   0  0  0  0  0  0  0  0  0  0  0  0
   -4.1569   -0.8000    0.0000 H   0  0  0  0  0  0  0  0  0  0  0  0
   -2.7713    1.6000    0.0000 H   0  0  0  0  0  0  0  0  0  0  0  0
   -0.7733   -2.2782    0.0000 Cl  0  0  0  0  0  0  0  0  0  0  0  0
    1.3856   -2.4000    0.0000 Cl  0  0  0  0  0  0  0  0  0  0  0  0
  1  2  1  0  0  0  0
  1  3  1  0  0  0  0
  1  4  1  0  0  0  0
  4  5  1  0  0  0  0
  4  6  1  0  0  0  0
  4  7  1  0  0  0  0
  7  8  1  0  0  0  0
  7  9  1  0  0  0  0
  9 10  1  0  0  0  0
  9 11  1  0  0  0  0
  9 12  1  0  0  0  0
  7 13  1  0  0  0  0
  1 14  1  0  0  0  0
M  END
> <ChemID>
103751

> <source_casrn>
1190-22-3

> <CAS>
NOCAS_870855

> <SMILES>
CC(Cl)CCCl

> <NAME>
Butane, 1,3-dichloro-

> <preferred_name>


> <iupac>


> <MPID>
22695

> <dsstox_substance_id>
DTXSID90870855

> <Canonical_QSARr>
CC(Cl)CCCl

> <InChI_Code_QSARr>
InChI=1S/C4H8Cl2/c1-4(6)2-3-5/h4H,2-3H2,1H3

> <InChI Key_QSARr>
QBGVARBIQGHVKR-UHFFFAOYSA-N

> <Salt_Solvent>
?

> <BP>
134.0

$$$$
103755
  -INDIGO-08031720192D

 16 15  0  0  0  0  0  0  0  0999 V2000
    2.7713    0.0000    0.0000 S   0  0  0  0  0  0  0  0  0  0  0  0
    4.1569   -0.8000    0.0000 H   0  0  0  0  0  0  0  0  0  0  0  0
    1.3857   -0.8000    0.0000 C   0  0  0  0  0  0  0  0  0  0  0  0
    0.7734   -2.2782    0.0000 H   0  0  0  0  0  0  0  0  0  0  0  0
    1.9980   -2.2782    0.0000 H   0  0  0  0  0  0  0  0  0  0  0  0
    0.0001    0.0000    0.0000 C   0  0  0  0  0  0  0  0  0  0  0  0
    0.6124    1.4782    0.0000 H   0  0  0  0  0  0  0  0  0  0  0  0
   -0.6122    1.4782    0.0000 H   0  0  0  0  0  0  0  0  0  0  0  0
   -1.3857   -0.8000    0.0000 C   0  0  0  0  0  0  0  0  0  0  0  0
   -1.9980   -2.2782    0.0000 H   0  0  0  0  0  0  0  0  0  0  0  0
   -0.7734   -2.2782    0.0000 H   0  0  0  0  0  0  0  0  0  0  0  0
   -2.7713    0.0000    0.0000 C   0  0  0  0  0  0  0  0  0  0  0  0
   -2.1590    1.4782    0.0000 H   0  0  0  0  0  0  0  0  0  0  0  0
   -3.3836    1.4782    0.0000 H   0  0  0  0  0  0  0  0  0  0  0  0
   -4.1569   -0.8000    0.0000 S   0  0  0  0  0  0  0  0  0  0  0  0
   -5.5426    0.0000    0.0000 H   0  0  0  0  0  0  0  0  0  0  0  0
  1  2  1  0  0  0  0
  1  3  1  0  0  0  0
  3  4  1  0  0  0  0
  3  5  1  0  0  0  0
  3  6  1  0  0  0  0
  6  7  1  0  0  0  0
  6  8  1  0  0  0  0
  6  9  1  0  0  0  0
  9 10  1  0  0  0  0
  9 11  1  0  0  0  0
  9 12  1  0  0  0  0
 12 13  1  0  0  0  0
 12 14  1  0  0  0  0
 12 15  1  0  0  0  0
 15 16  1  0  0  0  0
M  END
> <ChemID>
103755

> <source_casrn>
1191-08-8

> <CAS>
1191-08-8

> <SMILES>
SCCCCS

> <NAME>
1,4-Butanedithiol

> <preferred_name>
1,4-Butanedithiol

> <iupac>
Butane-1,4-dithiol

> <MPID>
22699

> <dsstox_substance_id>
DTXSID0061589

> <Canonical_QSARr>
SCCCCS

> <InChI_Code_QSARr>
InChI=1S/C4H10S2/c5-3-1-2-4-6/h5-6H,1-4H2

> <InChI Key_QSARr>
SMTOKHQOVJRXLK-UHFFFAOYSA-N

> <Salt_Solvent>
?

> <BP>
195.5

$$$$
103759
  -INDIGO-08031720192D

 11 11  0  0  0  0  0  0  0  0999 V2000
    2.5747   -0.2706    0.0000 O   0  0  0  0  0  0  0  0  0  0  0  0
    2.2420    1.2945    0.0000 C   0  0  0  0  0  0  0  0  0  0  0  0
    3.3126    2.4834    0.0000 H   0  0  0  0  0  0  0  0  0  0  0  0
    0.6508    1.4616    0.0000 C   0  0  0  0  0  0  0  0  0  0  0  0
   -0.1492    2.8473    0.0000 H   0  0  0  0  0  0  0  0  0  0  0  0
    0.0000    0.0000    0.0000 C   0  0  0  0  0  0  0  0  0  0  0  0
   -1.3856    0.8000    0.0000 H   0  0  0  0  0  0  0  0  0  0  0  0
   -0.9404   -1.2944    0.0000 H   0  0  0  0  0  0  0  0  0  0  0  0
    1.1891   -1.0706    0.0000 C   0  0  0  0  0  0  0  0  0  0  0  0
    0.0000   -2.1412    0.0000 H   0  0  0  0  0  0  0  0  0  0  0  0
    2.1295   -2.3650    0.0000 H   0  0  0  0  0  0  0  0  0  0  0  0
  1  2  1  0  0  0  0
  2  3  1  0  0  0  0
  2  4  2  0  0  0  0
  4  5  1  0  0  0  0
  4  6  1  0  0  0  0
  6  7  1  0  0  0  0
  6  8  1  0  0  0  0
  6  9  1  0  0  0  0
  9  1  1  0  0  0  0
  9 10  1  0  0  0  0
  9 11  1  0  0  0  0
M  END
> <ChemID>
103759

> <source_casrn>
1191-99-7

> <CAS>
1191-99-7

> <SMILES>
C1COC=C1

> <NAME>
Furan, 2,3-dihydro-

> <preferred_name>
Furan, 2,3-dihydro-

> <iupac>
2,3-Dihydrofuran

> <MPID>
22703

> <dsstox_substance_id>
DTXSID9061594

> <Canonical_QSARr>
C1COC=C1

> <InChI_Code_QSARr>
InChI=1S/C4H6O/c1-2-4-5-3-1/h1,3H,2,4H2

> <InChI Key_QSARr>
JKTCBAGSMQIFNL-UHFFFAOYSA-N

> <Salt_Solvent>
?

> <BP>
54.5

$$$$
103764
  -INDIGO-08031720192D

 14 14  0  0  0  0  0  0  0  0999 V2000
    1.4617    0.6508    0.0000 C   0  0  0  0  0  0  0  0  0  0  0  0
    1.6290    2.2420    0.0000 O   0  0  0  0  0  0  0  0  0  0  0  0
   -0.0001    0.0000    0.0000 C   0  0  0  0  0  0  0  0  0  0  0  0
   -0.3326   -1.5650    0.0000 O   0  0  0  0  0  0  0  0  0  0  0  0
   -1.9239   -1.7323    0.0000 C   0  0  0  0  0  0  0  0  0  0  0  0
   -2.7239   -3.1179    0.0000 H   0  0  0  0  0  0  0  0  0  0  0  0
   -2.5747   -0.2706    0.0000 C   0  0  0  0  0  0  0  0  0  0  0  0
   -4.1397    0.0621    0.0000 H   0  0  0  0  0  0  0  0  0  0  0  0
   -1.3856    0.8000    0.0000 C   0  0  0  0  0  0  0  0  0  0  0  0
   -1.5528    2.3912    0.0000 H   0  0  0  0  0  0  0  0  0  0  0  0
    2.7561   -0.2897    0.0000 C   0  0  0  0  0  0  0  0  0  0  0  0
    4.0506   -1.2302    0.0000 H   0  0  0  0  0  0  0  0  0  0  0  0
    4.2178    0.3611    0.0000 H   0  0  0  0  0  0  0  0  0  0  0  0
    2.5889   -1.8809    0.0000 H   0  0  0  0  0  0  0  0  0  0  0  0
  1  2  2  0  0  0  0
  1  3  1  0  0  0  0
  3  4  1  0  0  0  0
  4  5  1  0  0  0  0
  5  6  1  0  0  0  0
  5  7  2  0  0  0  0
  7  8  1  0  0  0  0
  7  9  1  0  0  0  0
  9  3  2  0  0  0  0
  9 10  1  0  0  0  0
  1 11  1  0  0  0  0
 11 12  1  0  0  0  0
 11 13  1  0  0  0  0
 11 14  1  0  0  0  0
M  END
> <ChemID>
103764

> <source_casrn>
1192-62-7

> <CAS>
1192-62-7

> <SMILES>
CC(=O)c1ccco1

> <NAME>
2-ACETYLFURAN

> <preferred_name>
2-Acetylfuran

> <iupac>
1-(2-furyl)ethanone

> <MPID>
22707

> <dsstox_substance_id>
DTXSID0051601

> <Canonical_QSARr>
CC(=O)c1ccco1

> <InChI_Code_QSARr>
InChI=1S/C6H6O2/c1-5(7)6-3-2-4-8-6/h2-4H,1H3

> <InChI Key_QSARr>
IEMMBWWQXVXBEU-UHFFFAOYSA-N

> <Salt_Solvent>
?

> <BP>
175.0

$$$$
103768
  -INDIGO-08031720192D

 23 23  0  0  0  0  0  0  0  0999 V2000
   -0.8000    1.3857    0.0000 C   0  0  0  0  0  0  0  0  0  0  0  0
    0.0000    0.0000    0.0000 C   0  0  0  0  0  0  0  0  0  0  0  0
    1.2257    1.0285    0.0000 C   0  0  0  0  0  0  0  0  0  0  0  0
    2.4513    2.0570    0.0000 H   0  0  0  0  0  0  0  0  0  0  0  0
    2.7292    0.4812    0.0000 H   0  0  0  0  0  0  0  0  0  0  0  0
    0.9479    2.6042    0.0000 H   0  0  0  0  0  0  0  0  0  0  0  0
    1.2257   -1.0285    0.0000 C   0  0  0  0  0  0  0  0  0  0  0  0
    2.4513   -2.0570    0.0000 H   0  0  0  0  0  0  0  0  0  0  0  0
    2.7292   -0.4812    0.0000 H   0  0  0  0  0  0  0  0  0  0  0  0
    1.5035   -2.6042    0.0000 H   0  0  0  0  0  0  0  0  0  0  0  0
   -0.8000   -1.3857    0.0000 C   0  0  0  0  0  0  0  0  0  0  0  0
    0.7035   -1.9329    0.0000 H   0  0  0  0  0  0  0  0  0  0  0  0
   -1.0778   -2.9613    0.0000 H   0  0  0  0  0  0  0  0  0  0  0  0
   -2.4000   -1.3857    0.0000 C   0  0  0  0  0  0  0  0  0  0  0  0
   -2.1222   -2.9613    0.0000 H   0  0  0  0  0  0  0  0  0  0  0  0
   -3.9035   -1.9329    0.0000 H   0  0  0  0  0  0  0  0  0  0  0  0
   -3.2000    0.0000    0.0000 C   0  0  0  0  0  0  0  0  0  0  0  0
   -4.4257   -1.0285    0.0000 H   0  0  0  0  0  0  0  0  0  0  0  0
   -4.4257    1.0285    0.0000 H   0  0  0  0  0  0  0  0  0  0  0  0
   -2.4000    1.3857    0.0000 C   0  0  0  0  0  0  0  0  0  0  0  0
   -3.9035    1.9329    0.0000 H   0  0  0  0  0  0  0  0  0  0  0  0
   -2.1222    2.9613    0.0000 H   0  0  0  0  0  0  0  0  0  0  0  0
    0.0000    2.7713    0.0000 O   0  0  0  0  0  0  0  0  0  0  0  0
  1  2  1  0  0  0  0
  2  3  1  0  0  0  0
  3  4  1  0  0  0  0
  3  5  1  0  0  0  0
  3  6  1  0  0  0  0
  2  7  1  0  0  0  0
  7  8  1  0  0  0  0
  7  9  1  0  0  0  0
  7 10  1  0  0  0  0
  2 11  1  0  0  0  0
 11 12  1  0  0  0  0
 11 13  1  0  0  0  0
 11 14  1  0  0  0  0
 14 15  1  0  0  0  0
 14 16  1  0  0  0  0
 14 17  1  0  0  0  0
 17 18  1  0  0  0  0
 17 19  1  0  0  0  0
 17 20  1  0  0  0  0
 20  1  1  0  0  0  0
 20 21  1  0  0  0  0
 20 22  1  0  0  0  0
  1 23  2  0  0  0  0
M  END
> <ChemID>
103768

> <source_casrn>
1193-47-1

> <CAS>
NOCAS_870859

> <SMILES>
CC1(C)CCCCC1=O

> <NAME>
CYCLOHEXANONE, 2,2-DIMETHYL-

> <preferred_name>


> <iupac>


> <MPID>
22711

> <dsstox_substance_id>
DTXSID30870859

> <Canonical_QSARr>
CC1(C)CCCCC1=O

> <InChI_Code_QSARr>
InChI=1S/C8H14O/c1-8(2)6-4-3-5-7(8)9/h3-6H2,1-2H3

> <InChI Key_QSARr>
KNSPBSQWRKKAPI-UHFFFAOYSA-N

> <Salt_Solvent>
?

> <BP>
172.0

$$$$
103772
  -INDIGO-08031720192D

 13 13  0  0  0  0  0  0  0  0999 V2000
    0.0000   -0.0000    0.0000 C   0  0  0  0  0  0  0  0  0  0  0  0
   -0.8001    1.3856    0.0000 C   0  0  0  0  0  0  0  0  0  0  0  0
    0.0000    2.7713    0.0000 H   0  0  0  0  0  0  0  0  0  0  0  0
   -2.4001    1.3856    0.0000 C   0  0  0  0  0  0  0  0  0  0  0  0
   -3.2000    2.7713    0.0000 H   0  0  0  0  0  0  0  0  0  0  0  0
   -3.2000   -0.0000    0.0000 C   0  0  0  0  0  0  0  0  0  0  0  0
   -4.8000   -0.0000    0.0000 F   0  0  0  0  0  0  0  0  0  0  0  0
   -2.4001   -1.3856    0.0000 C   0  0  0  0  0  0  0  0  0  0  0  0
   -3.2000   -2.7713    0.0000 H   0  0  0  0  0  0  0  0  0  0  0  0
   -0.8001   -1.3856    0.0000 C   0  0  0  0  0  0  0  0  0  0  0  0
    0.0000   -2.7713    0.0000 H   0  0  0  0  0  0  0  0  0  0  0  0
    1.6000   -0.0000    0.0000 C   0  0  0  0  0  0  0  0  0  0  0  0
    3.2000   -0.0000    0.0000 N   0  0  0  0  0  0  0  0  0  0  0  0
  1  2  1  0  0  0  0
  2  3  1  0  0  0  0
  2  4  2  0  0  0  0
  4  5  1  0  0  0  0
  4  6  1  0  0  0  0
  6  7  1  0  0  0  0
  6  8  2  0  0  0  0
  8  9  1  0  0  0  0
  8 10  1  0  0  0  0
 10  1  2  0  0  0  0
 10 11  1  0  0  0  0
  1 12  1  0  0  0  0
 12 13  3  0  0  0  0
M  END
> <ChemID>
103772

> <source_casrn>
1194-02-1

> <CAS>
1194-02-1

> <SMILES>
N#Cc1ccc(F)cc1

> <NAME>
Benzonitrile, 4-fluoro-

> <preferred_name>
4-Fluorobenzonitrile

> <iupac>
4-Fluorobenzonitrile

> <MPID>
22715

> <dsstox_substance_id>
DTXSID6061600

> <Canonical_QSARr>
N#Cc1ccc(F)cc1

> <InChI_Code_QSARr>
InChI=1S/C7H4FN/c8-7-3-1-6(5-9)2-4-7/h1-4H

> <InChI Key_QSARr>
AEKVBBNGWBBYLL-UHFFFAOYSA-N

> <Salt_Solvent>
?

> <BP>
188.8

$$$$
103776
  -INDIGO-08031720192D

 25 26  0  0  0  0  0  0  0  0999 V2000
   -1.3891   -0.8450    0.0000 C   0  0  0  0  0  0  0  0  0  0  0  0
   -0.3476   -2.0596    0.0000 H   0  0  0  0  0  0  0  0  0  0  0  0
   -2.4195   -2.0691    0.0000 C   0  0  0  0  0  0  0  0  0  0  0  0
   -1.6170   -3.4534    0.0000 C   0  0  0  0  0  0  0  0  0  0  0  0
   -0.8145   -4.8376    0.0000 H   0  0  0  0  0  0  0  0  0  0  0  0
   -2.4145   -4.8404    0.0000 H   0  0  0  0  0  0  0  0  0  0  0  0
   -0.0169   -3.4504    0.0000 H   0  0  0  0  0  0  0  0  0  0  0  0
   -3.8602   -2.3308    0.0000 C   0  0  0  0  0  0  0  0  0  0  0  0
   -4.8573   -3.5821    0.0000 H   0  0  0  0  0  0  0  0  0  0  0  0
   -3.9266   -0.8742    0.0000 C   0  0  0  0  0  0  0  0  0  0  0  0
   -5.4256   -0.3148    0.0000 O   0  0  0  0  0  0  0  0  0  0  0  0
   -2.7825    0.3296    0.0000 C   0  0  0  0  0  0  0  0  0  0  0  0
   -4.2901    0.8654    0.0000 H   0  0  0  0  0  0  0  0  0  0  0  0
   -0.0001   -0.0000    0.0000 C   0  0  0  0  0  0  0  0  0  0  0  0
    0.6525    1.4610    0.0000 C   0  0  0  0  0  0  0  0  0  0  0  0
    1.3049    2.9218    0.0000 H   0  0  0  0  0  0  0  0  0  0  0  0
    2.2438    1.6263    0.0000 H   0  0  0  0  0  0  0  0  0  0  0  0
   -0.2866    2.7565    0.0000 H   0  0  0  0  0  0  0  0  0  0  0  0
    1.2007   -1.0576    0.0000 C   0  0  0  0  0  0  0  0  0  0  0  0
    2.4012   -2.1153    0.0000 H   0  0  0  0  0  0  0  0  0  0  0  0
    2.7168   -0.5466    0.0000 H   0  0  0  0  0  0  0  0  0  0  0  0
    0.8850   -2.6262    0.0000 H   0  0  0  0  0  0  0  0  0  0  0  0
   -2.9050    1.9203    0.0000 C   0  0  0  0  0  0  0  0  0  0  0  0
   -4.4312    2.4011    0.0000 H   0  0  0  0  0  0  0  0  0  0  0  0
   -1.8900    3.1571    0.0000 H   0  0  0  0  0  0  0  0  0  0  0  0
  1  2  1  0  0  0  0
  1  3  1  0  0  0  0
  3  4  1  0  0  0  0
  4  5  1  0  0  0  0
  4  6  1  0  0  0  0
  4  7  1  0  0  0  0
  3  8  2  0  0  0  0
  8  9  1  0  0  0  0
  8 10  1  0  0  0  0
 10 11  2  0  0  0  0
 10 12  1  0  0  0  0
 12 13  1  0  0  0  0
 12 14  1  0  0  0  0
 14  1  1  0  0  0  0
 14 15  1  0  0  0  0
 15 16  1  0  0  0  0
 15 17  1  0  0  0  0
 15 18  1  0  0  0  0
 14 19  1  0  0  0  0
 19 20  1  0  0  0  0
 19 21  1  0  0  0  0
 19 22  1  0  0  0  0
 12 23  1  0  0  0  0
 23  1  1  0  0  0  0
 23 24  1  0  0  0  0
 23 25  1  0  0  0  0
M  END
> <ChemID>
103776

> <source_casrn>
1196-01-6

> <CAS>
1196-01-6

> <SMILES>
CC1=CC(=O)[C@H]2C[C@@H]1C2(C)C

> <NAME>
(-)Verbenone

> <preferred_name>
L-Verbenone

> <iupac>
(1S,5S)-4,6,6-trimethylbicyclo[3.1.1]hept-3-en-2-one

> <MPID>
22719

> <dsstox_substance_id>
DTXSID9035620

> <Canonical_QSARr>
CC1=CC(=O)C2CC1C2(C)C

> <InChI_Code_QSARr>
InChI=1S/C10H14O/c1-6-4-9(11)8-5-7(6)10(8,2)3/h4,7-8H,5H2,1-3H3

> <InChI Key_QSARr>
DCSCXTJOXBUFGB-UHFFFAOYSA-N

> <Salt_Solvent>
?

> <BP>
227.5

$$$$
103781
  -INDIGO-08031720192D

 23 24  0  0  0  0  0  0  0  0999 V2000
   -0.0001   -0.0001    0.0000 C   0  0  0  0  0  0  0  0  0  0  0  0
    1.3857    0.8000    0.0000 C   0  0  0  0  0  0  0  0  0  0  0  0
    1.3857    2.4000    0.0000 C   0  0  0  0  0  0  0  0  0  0  0  0
    1.3857    4.0000    0.0000 H   0  0  0  0  0  0  0  0  0  0  0  0
    2.7713    3.1999    0.0000 H   0  0  0  0  0  0  0  0  0  0  0  0
   -0.0001    3.1999    0.0000 H   0  0  0  0  0  0  0  0  0  0  0  0
    2.7713    0.0001    0.0000 C   0  0  0  0  0  0  0  0  0  0  0  0
    4.1569    0.8000    0.0000 H   0  0  0  0  0  0  0  0  0  0  0  0
    2.7713   -1.5999    0.0000 C   0  0  0  0  0  0  0  0  0  0  0  0
    4.1569   -2.4000    0.0000 C   0  0  0  0  0  0  0  0  0  0  0  0
    5.5426   -3.1999    0.0000 H   0  0  0  0  0  0  0  0  0  0  0  0
    4.1569   -4.0000    0.0000 H   0  0  0  0  0  0  0  0  0  0  0  0
    5.5426   -1.6001    0.0000 H   0  0  0  0  0  0  0  0  0  0  0  0
    1.3857   -2.4000    0.0000 N   0  0  0  0  0  0  0  0  0  0  0  0
   -0.0001   -1.5999    0.0000 C   0  0  0  0  0  0  0  0  0  0  0  0
   -1.3857   -2.4000    0.0000 C   0  0  0  0  0  0  0  0  0  0  0  0
   -1.3857   -4.0000    0.0000 H   0  0  0  0  0  0  0  0  0  0  0  0
   -2.7713   -1.5999    0.0000 C   0  0  0  0  0  0  0  0  0  0  0  0
   -4.1569   -2.4000    0.0000 H   0  0  0  0  0  0  0  0  0  0  0  0
   -2.7713   -0.0001    0.0000 C   0  0  0  0  0  0  0  0  0  0  0  0
   -4.1569    0.8000    0.0000 H   0  0  0  0  0  0  0  0  0  0  0  0
   -1.3857    0.8000    0.0000 C   0  0  0  0  0  0  0  0  0  0  0  0
   -1.3857    2.4000    0.0000 H   0  0  0  0  0  0  0  0  0  0  0  0
  1  2  1  0  0  0  0
  2  3  1  0  0  0  0
  3  4  1  0  0  0  0
  3  5  1  0  0  0  0
  3  6  1  0  0  0  0
  2  7  2  0  0  0  0
  7  8  1  0  0  0  0
  7  9  1  0  0  0  0
  9 10  1  0  0  0  0
 10 11  1  0  0  0  0
 10 12  1  0  0  0  0
 10 13  1  0  0  0  0
  9 14  2  0  0  0  0
 14 15  1  0  0  0  0
 15  1  1  0  0  0  0
 15 16  2  0  0  0  0
 16 17  1  0  0  0  0
 16 18  1  0  0  0  0
 18 19  1  0  0  0  0
 18 20  2  0  0  0  0
 20 21  1  0  0  0  0
 20 22  1  0  0  0  0
 22  1  2  0  0  0  0
 22 23  1  0  0  0  0
M  END
> <ChemID>
103781

> <source_casrn>
1198-37-4

> <CAS>
1198-37-4

> <SMILES>
Cc1cc(C)[n]c2ccccc12

> <NAME>
2,4-DIMETHYLQUINOLINE

> <preferred_name>
Quinoline, 2,4-dimethyl-

> <iupac>
2,4-Dimethylquinoline

> <MPID>
22723

> <dsstox_substance_id>
DTXSID0061610

> <Canonical_QSARr>
Cc1cc(C)[n]c2ccccc12

> <InChI_Code_QSARr>
InChI=1S/C11H11N/c1-8-7-9(2)12-11-6-4-3-5-10(8)11/h3-7H,1-2H3

> <InChI Key_QSARr>
ZTNANFDSJRRZRJ-UHFFFAOYSA-N

> <Salt_Solvent>
?

> <BP>
265.0

$$$$
103785
  -INDIGO-08031720192D

 22 23  0  0  0  0  0  0  0  0999 V2000
    0.0001   -0.0000    0.0000 C   0  0  0  0  0  0  0  0  0  0  0  0
    1.3857    0.8000    0.0000 N   0  0  0  0  0  0  0  0  0  0  0  0
    1.3857    2.4000    0.0000 H   0  0  0  0  0  0  0  0  0  0  0  0
    2.7712   -0.0000    0.0000 C   0  0  0  0  0  0  0  0  0  0  0  0
    2.7712   -1.6000    0.0000 C   0  0  0  0  0  0  0  0  0  0  0  0
    1.3857   -2.4000    0.0000 H   0  0  0  0  0  0  0  0  0  0  0  0
    4.1569   -2.4000    0.0000 C   0  0  0  0  0  0  0  0  0  0  0  0
    4.1569   -4.0000    0.0000 H   0  0  0  0  0  0  0  0  0  0  0  0
    5.5425   -1.6000    0.0000 C   0  0  0  0  0  0  0  0  0  0  0  0
    6.9282   -2.4000    0.0000 H   0  0  0  0  0  0  0  0  0  0  0  0
    5.5425   -0.0000    0.0000 C   0  0  0  0  0  0  0  0  0  0  0  0
    6.9282    0.8000    0.0000 H   0  0  0  0  0  0  0  0  0  0  0  0
    4.1569    0.8000    0.0000 N   0  0  0  0  0  0  0  0  0  0  0  0
   -1.3856    0.8000    0.0000 C   0  0  0  0  0  0  0  0  0  0  0  0
   -1.3856    2.4000    0.0000 H   0  0  0  0  0  0  0  0  0  0  0  0
   -2.7713   -0.0000    0.0000 C   0  0  0  0  0  0  0  0  0  0  0  0
   -4.1569    0.8000    0.0000 H   0  0  0  0  0  0  0  0  0  0  0  0
   -2.7713   -1.6000    0.0000 C   0  0  0  0  0  0  0  0  0  0  0  0
   -4.1569   -2.4000    0.0000 H   0  0  0  0  0  0  0  0  0  0  0  0
   -1.3856   -2.4000    0.0000 C   0  0  0  0  0  0  0  0  0  0  0  0
   -1.3856   -4.0000    0.0000 H   0  0  0  0  0  0  0  0  0  0  0  0
    0.0001   -1.6000    0.0000 N   0  0  0  0  0  0  0  0  0  0  0  0
  1  2  1  0  0  0  0
  2  3  1  0  0  0  0
  2  4  1  0  0  0  0
  4  5  1  0  0  0  0
  5  6  1  0  0  0  0
  5  7  2  0  0  0  0
  7  8  1  0  0  0  0
  7  9  1  0  0  0  0
  9 10  1  0  0  0  0
  9 11  2  0  0  0  0
 11 12  1  0  0  0  0
 11 13  1  0  0  0  0
 13  4  2  0  0  0  0
  1 14  1  0  0  0  0
 14 15  1  0  0  0  0
 14 16  2  0  0  0  0
 16 17  1  0  0  0  0
 16 18  1  0  0  0  0
 18 19  1  0  0  0  0
 18 20  2  0  0  0  0
 20 21  1  0  0  0  0
 20 22  1  0  0  0  0
 22  1  2  0  0  0  0
M  END
> <ChemID>
103785

> <source_casrn>
1202-34-2

> <CAS>
1202-34-2

> <SMILES>
c1ccc[n]c1Nc1cccc[n]1

> <NAME>
N-2-PYRIDINYL-2-PYRIDINAMINE

> <preferred_name>
2-Pyridinamine, N-2-pyridinyl-

> <iupac>
N-pyridin-2-ylpyridin-2-amine

> <MPID>
22727

> <dsstox_substance_id>
DTXSID5061619

> <Canonical_QSARr>
c1ccc[n]c1Nc1cccc[n]1

> <InChI_Code_QSARr>
InChI=1S/C10H9N3/c1-3-7-11-9(5-1)13-10-6-2-4-8-12-10/h1-8H,(H,11,12,13)

> <InChI Key_QSARr>
HMMPCBAWTWYFLR-UHFFFAOYSA-N

> <Salt_Solvent>
?

> <BP>
307.5

$$$$
103794
  -INDIGO-08031720192D

 31 30  0  0  0  0  0  0  0  0999 V2000
   -4.2326    0.0660    0.0000 C   0  0  0  0  0  0  0  0  0  0  0  0
   -3.8863    1.6280    0.0000 H   0  0  0  0  0  0  0  0  0  0  0  0
   -5.0923    1.4154    0.0000 H   0  0  0  0  0  0  0  0  0  0  0  0
   -5.4584   -0.9625    0.0000 C   0  0  0  0  0  0  0  0  0  0  0  0
   -5.8047   -2.5245    0.0000 H   0  0  0  0  0  0  0  0  0  0  0  0
   -4.5987   -2.3119    0.0000 H   0  0  0  0  0  0  0  0  0  0  0  0
   -6.9618   -0.4152    0.0000 C   0  0  0  0  0  0  0  0  0  0  0  0
   -6.6156    1.1468    0.0000 H   0  0  0  0  0  0  0  0  0  0  0  0
   -7.8215    0.9342    0.0000 H   0  0  0  0  0  0  0  0  0  0  0  0
   -8.1875   -1.4437    0.0000 C   0  0  0  0  0  0  0  0  0  0  0  0
   -8.5338   -3.0058    0.0000 H   0  0  0  0  0  0  0  0  0  0  0  0
   -7.3278   -2.7931    0.0000 H   0  0  0  0  0  0  0  0  0  0  0  0
   -9.6911   -0.8965    0.0000 C   0  0  0  0  0  0  0  0  0  0  0  0
  -10.9167   -1.9249    0.0000 H   0  0  0  0  0  0  0  0  0  0  0  0
   -9.9689    0.6793    0.0000 O   0  0  0  0  0  0  0  0  0  0  0  0
   -2.7292   -0.4813    0.0000 C   0  0  0  0  0  0  0  0  0  0  0  0
   -3.0755   -2.0433    0.0000 H   0  0  0  0  0  0  0  0  0  0  0  0
   -1.8695   -1.8307    0.0000 H   0  0  0  0  0  0  0  0  0  0  0  0
   -1.5036    0.5472    0.0000 C   0  0  0  0  0  0  0  0  0  0  0  0
   -1.1573    2.1093    0.0000 H   0  0  0  0  0  0  0  0  0  0  0  0
   -2.3633    1.8966    0.0000 H   0  0  0  0  0  0  0  0  0  0  0  0
    0.0001   -0.0000    0.0000 C   0  0  0  0  0  0  0  0  0  0  0  0
   -0.7999   -1.3856    0.0000 H   0  0  0  0  0  0  0  0  0  0  0  0
    1.3857   -0.8000    0.0000 C   0  0  0  0  0  0  0  0  0  0  0  0
    2.7713   -1.6000    0.0000 H   0  0  0  0  0  0  0  0  0  0  0  0
    1.3857   -2.4000    0.0000 H   0  0  0  0  0  0  0  0  0  0  0  0
    2.7713   -0.0000    0.0000 H   0  0  0  0  0  0  0  0  0  0  0  0
    0.8000    1.3856    0.0000 C   0  0  0  0  0  0  0  0  0  0  0  0
    1.6000    2.7713    0.0000 H   0  0  0  0  0  0  0  0  0  0  0  0
    0.0001    2.7713    0.0000 H   0  0  0  0  0  0  0  0  0  0  0  0
    2.3999    1.3856    0.0000 H   0  0  0  0  0  0  0  0  0  0  0  0
  1  2  1  0  0  0  0
  1  3  1  0  0  0  0
  1  4  1  0  0  0  0
  4  5  1  0  0  0  0
  4  6  1  0  0  0  0
  4  7  1  0  0  0  0
  7  8  1  0  0  0  0
  7  9  1  0  0  0  0
  7 10  1  0  0  0  0
 10 11  1  0  0  0  0
 10 12  1  0  0  0  0
 10 13  1  0  0  0  0
 13 14  1  0  0  0  0
 13 15  2  0  0  0  0
  1 16  1  0  0  0  0
 16 17  1  0  0  0  0
 16 18  1  0  0  0  0
 16 19  1  0  0  0  0
 19 20  1  0  0  0  0
 19 21  1  0  0  0  0
 19 22  1  0  0  0  0
 22 23  1  0  0  0  0
 22 24  1  0  0  0  0
 24 25  1  0  0  0  0
 24 26  1  0  0  0  0
 24 27  1  0  0  0  0
 22 28  1  0  0  0  0
 28 29  1  0  0  0  0
 28 30  1  0  0  0  0
 28 31  1  0  0  0  0
M  END
> <ChemID>
103794

> <source_casrn>
1321-89-7

> <CAS>
1321-89-7

> <SMILES>
CC(C)CCCCCCC=O

> <NAME>
ISODECYLADEHYDE

> <preferred_name>
Isodecanal

> <iupac>
8-methylnonanal

> <MPID>
22731

> <dsstox_substance_id>
DTXSID0061668

> <Canonical_QSARr>
CC(C)CCCCCCC=O

> <InChI_Code_QSARr>
InChI=1S/C10H20O/c1-10(2)8-6-4-3-5-7-9-11/h9-10H,3-8H2,1-2H3

> <InChI Key_QSARr>
WDMOXLRWVGEXJV-UHFFFAOYSA-N

> <Salt_Solvent>
?

> <BP>
197.0

$$$$
103805
  -INDIGO-08031720192D

 12 12  0  0  0  0  0  0  0  0999 V2000
   -0.0000   -0.0000    0.0000 C   0  0  0  0  0  0  0  0  0  0  0  0
    0.8000   -1.3857    0.0000 C   0  0  0  0  0  0  0  0  0  0  0  0
    2.4000   -1.3857    0.0000 Cl  0  0  0  0  0  0  0  0  0  0  0  0
   -0.0000   -2.7713    0.0000 C   0  0  0  0  0  0  0  0  0  0  0  0
    0.8000   -4.1569    0.0000 H   0  0  0  0  0  0  0  0  0  0  0  0
   -1.6000   -2.7713    0.0000 C   0  0  0  0  0  0  0  0  0  0  0  0
   -2.4000   -4.1569    0.0000 H   0  0  0  0  0  0  0  0  0  0  0  0
   -2.4000   -1.3856    0.0000 C   0  0  0  0  0  0  0  0  0  0  0  0
   -4.0000   -1.3856    0.0000 Cl  0  0  0  0  0  0  0  0  0  0  0  0
   -1.6000   -0.0000    0.0000 C   0  0  0  0  0  0  0  0  0  0  0  0
   -2.4000    1.3856    0.0000 H   0  0  0  0  0  0  0  0  0  0  0  0
    0.8000    1.3856    0.0000 Br  0  0  0  0  0  0  0  0  0  0  0  0
  1  2  1  0  0  0  0
  2  3  1  0  0  0  0
  2  4  2  0  0  0  0
  4  5  1  0  0  0  0
  4  6  1  0  0  0  0
  6  7  1  0  0  0  0
  6  8  2  0  0  0  0
  8  9  1  0  0  0  0
  8 10  1  0  0  0  0
 10  1  2  0  0  0  0
 10 11  1  0  0  0  0
  1 12  1  0  0  0  0
M  END
> <ChemID>
103805

> <source_casrn>
1435-50-3

> <CAS>
1435-50-3

> <SMILES>
Clc1cc(Br)c(Cl)cc1

> <NAME>
BENZENE, 2-BROMO-1,4-DICHLORO-

> <preferred_name>
Benzene, 2-bromo-1,4-dichloro-

> <iupac>
2-BROMO-1,4-DICHLOROBENZENE

> <MPID>
22736

> <dsstox_substance_id>
DTXSID7075185

> <Canonical_QSARr>
Clc1cc(Br)c(Cl)cc1

> <InChI_Code_QSARr>
InChI=1S/C6H3BrCl2/c7-5-3-4(8)1-2-6(5)9/h1-3H

> <InChI Key_QSARr>
OVXVQBCRONSPDC-UHFFFAOYSA-N

> <Salt_Solvent>
?

> <BP>
226.0

$$$$
103809
  -INDIGO-08031720192D

 23 22  0  0  0  0  0  0  0  0999 V2000
    5.5425    0.0000    0.0000 C   0  0  0  0  0  0  0  0  0  0  0  0
    6.9282   -0.8000    0.0000 H   0  0  0  0  0  0  0  0  0  0  0  0
    6.9282    0.8000    0.0000 H   0  0  0  0  0  0  0  0  0  0  0  0
    5.5425   -1.6000    0.0000 H   0  0  0  0  0  0  0  0  0  0  0  0
    4.1569    0.8000    0.0000 C   0  0  0  0  0  0  0  0  0  0  0  0
    4.7692    2.2782    0.0000 H   0  0  0  0  0  0  0  0  0  0  0  0
    3.5446    2.2782    0.0000 H   0  0  0  0  0  0  0  0  0  0  0  0
    2.7712    0.0000    0.0000 C   0  0  0  0  0  0  0  0  0  0  0  0
    1.3857    0.8000    0.0000 C   0  0  0  0  0  0  0  0  0  0  0  0
    1.3857    2.4000    0.0000 H   0  0  0  0  0  0  0  0  0  0  0  0
    0.0001    0.0000    0.0000 C   0  0  0  0  0  0  0  0  0  0  0  0
   -1.3856    0.8000    0.0000 C   0  0  0  0  0  0  0  0  0  0  0  0
   -0.7733    2.2782    0.0000 H   0  0  0  0  0  0  0  0  0  0  0  0
   -1.9979    2.2782    0.0000 H   0  0  0  0  0  0  0  0  0  0  0  0
   -2.7713    0.0000    0.0000 C   0  0  0  0  0  0  0  0  0  0  0  0
   -4.1569   -0.8000    0.0000 H   0  0  0  0  0  0  0  0  0  0  0  0
   -4.1569    0.8000    0.0000 H   0  0  0  0  0  0  0  0  0  0  0  0
   -2.7713   -1.6000    0.0000 H   0  0  0  0  0  0  0  0  0  0  0  0
    0.0001   -1.6000    0.0000 C   0  0  0  0  0  0  0  0  0  0  0  0
    0.0001   -3.2000    0.0000 H   0  0  0  0  0  0  0  0  0  0  0  0
    1.3857   -2.4000    0.0000 H   0  0  0  0  0  0  0  0  0  0  0  0
   -1.3856   -2.4000    0.0000 H   0  0  0  0  0  0  0  0  0  0  0  0
    2.7712   -1.6000    0.0000 O   0  0  0  0  0  0  0  0  0  0  0  0
  1  2  1  0  0  0  0
  1  3  1  0  0  0  0
  1  4  1  0  0  0  0
  1  5  1  0  0  0  0
  5  6  1  0  0  0  0
  5  7  1  0  0  0  0
  5  8  1  0  0  0  0
  8  9  1  0  0  0  0
  9 10  1  0  0  0  0
  9 11  2  0  0  0  0
 11 12  1  0  0  0  0
 12 13  1  0  0  0  0
 12 14  1  0  0  0  0
 12 15  1  0  0  0  0
 15 16  1  0  0  0  0
 15 17  1  0  0  0  0
 15 18  1  0  0  0  0
 11 19  1  0  0  0  0
 19 20  1  0  0  0  0
 19 21  1  0  0  0  0
 19 22  1  0  0  0  0
  8 23  2  0  0  0  0
M  END
> <ChemID>
103809

> <source_casrn>
1447-26-3

> <CAS>
NOCAS_870873

> <SMILES>
CC(CC)=CC(=O)CC

> <NAME>
4-HEPTEN-3-ONE, 5-METHYL-

> <preferred_name>


> <iupac>


> <MPID>
22740

> <dsstox_substance_id>
DTXSID70870873

> <Canonical_QSARr>
CC(CC)=CC(=O)CC

> <InChI_Code_QSARr>
InChI=1S/C8H14O/c1-4-7(3)6-8(9)5-2/h6H,4-5H2,1-3H3/b7-6+

> <InChI Key_QSARr>
XJEHTASYOBAEDB-VOTSOKGWSA-N

> <Salt_Solvent>
?

> <BP>
166.5

$$$$
103813
  -INDIGO-08031720192D

 22 22  0  0  0  0  0  0  0  0999 V2000
    0.0000    0.0000    0.0000 C   0  0  0  0  0  0  0  0  0  0  0  0
    0.9340    1.2991    0.0000 H   0  0  0  0  0  0  0  0  0  0  0  0
    1.5599   -0.3560    0.0000 H   0  0  0  0  0  0  0  0  0  0  0  0
   -1.2509    0.9976    0.0000 C   0  0  0  0  0  0  0  0  0  0  0  0
    0.0000    1.9952    0.0000 H   0  0  0  0  0  0  0  0  0  0  0  0
   -1.6843    2.5378    0.0000 H   0  0  0  0  0  0  0  0  0  0  0  0
   -2.8108    0.6415    0.0000 C   0  0  0  0  0  0  0  0  0  0  0  0
   -2.8108    2.2415    0.0000 H   0  0  0  0  0  0  0  0  0  0  0  0
   -4.3707    0.9976    0.0000 H   0  0  0  0  0  0  0  0  0  0  0  0
   -3.5051   -0.8000    0.0000 C   0  0  0  0  0  0  0  0  0  0  0  0
   -5.1050   -0.8000    0.0000 C   0  0  0  0  0  0  0  0  0  0  0  0
   -6.7050   -0.8000    0.0000 H   0  0  0  0  0  0  0  0  0  0  0  0
   -5.9051   -2.1856    0.0000 H   0  0  0  0  0  0  0  0  0  0  0  0
   -5.9051    0.5856    0.0000 H   0  0  0  0  0  0  0  0  0  0  0  0
   -2.8108   -2.2415    0.0000 C   0  0  0  0  0  0  0  0  0  0  0  0
   -3.8084   -3.4925    0.0000 H   0  0  0  0  0  0  0  0  0  0  0  0
   -1.2509   -2.5976    0.0000 C   0  0  0  0  0  0  0  0  0  0  0  0
   -1.9452   -4.0391    0.0000 H   0  0  0  0  0  0  0  0  0  0  0  0
   -0.1922   -3.7973    0.0000 H   0  0  0  0  0  0  0  0  0  0  0  0
    0.0000   -1.6000    0.0000 C   0  0  0  0  0  0  0  0  0  0  0  0
    0.6942   -3.0416    0.0000 H   0  0  0  0  0  0  0  0  0  0  0  0
    1.5980   -1.5203    0.0000 H   0  0  0  0  0  0  0  0  0  0  0  0
  1  2  1  0  0  0  0
  1  3  1  0  0  0  0
  1  4  1  0  0  0  0
  4  5  1  0  0  0  0
  4  6  1  0  0  0  0
  4  7  1  0  0  0  0
  7  8  1  0  0  0  0
  7  9  1  0  0  0  0
  7 10  1  0  0  0  0
 10 11  1  0  0  0  0
 11 12  1  0  0  0  0
 11 13  1  0  0  0  0
 11 14  1  0  0  0  0
 10 15  2  0  0  0  0
 15 16  1  0  0  0  0
 15 17  1  0  0  0  0
 17 18  1  0  0  0  0
 17 19  1  0  0  0  0
 17 20  1  0  0  0  0
 20  1  1  0  0  0  0
 20 21  1  0  0  0  0
 20 22  1  0  0  0  0
M  END
> <ChemID>
103813

> <source_casrn>
1453-25-4

> <CAS>
1453-25-4

> <SMILES>
CC1CCCCCC=1

> <NAME>
1-Methyl-cycloheptene

> <preferred_name>
1-Methylcycloheptene

> <iupac>
1-Methylcycloheptene

> <MPID>
22744

> <dsstox_substance_id>
DTXSID20162972

> <Canonical_QSARr>
CC1CCCCCC=1

> <InChI_Code_QSARr>
InChI=1S/C8H14/c1-8-6-4-2-3-5-7-8/h6H,2-5,7H2,1H3

> <InChI Key_QSARr>
MREBNFRVGNTYOV-UHFFFAOYSA-N

> <Salt_Solvent>
?

> <BP>
136.0

$$$$
103817
  -INDIGO-08031720192D

 30 29  0  0  0  0  0  0  0  0999 V2000
    0.0001   -0.0000    0.0000 C   0  0  0  0  0  0  0  0  0  0  0  0
    0.6122   -1.4782    0.0000 H   0  0  0  0  0  0  0  0  0  0  0  0
   -0.6123   -1.4782    0.0000 H   0  0  0  0  0  0  0  0  0  0  0  0
    1.3856    0.8000    0.0000 C   0  0  0  0  0  0  0  0  0  0  0  0
    0.7734    2.2782    0.0000 H   0  0  0  0  0  0  0  0  0  0  0  0
    1.9979    2.2782    0.0000 H   0  0  0  0  0  0  0  0  0  0  0  0
    2.7713   -0.0000    0.0000 C   0  0  0  0  0  0  0  0  0  0  0  0
    3.3836   -1.4782    0.0000 H   0  0  0  0  0  0  0  0  0  0  0  0
    2.1589   -1.4782    0.0000 H   0  0  0  0  0  0  0  0  0  0  0  0
    4.1570    0.8000    0.0000 C   0  0  0  0  0  0  0  0  0  0  0  0
    3.5446    2.2782    0.0000 H   0  0  0  0  0  0  0  0  0  0  0  0
    4.7691    2.2782    0.0000 H   0  0  0  0  0  0  0  0  0  0  0  0
    5.5427   -0.0000    0.0000 C   0  0  0  0  0  0  0  0  0  0  0  0
    6.1548   -1.4782    0.0000 H   0  0  0  0  0  0  0  0  0  0  0  0
    4.9303   -1.4782    0.0000 H   0  0  0  0  0  0  0  0  0  0  0  0
    6.9281    0.8000    0.0000 S   0  0  0  0  0  0  0  0  0  0  0  0
    8.3138   -0.0000    0.0000 H   0  0  0  0  0  0  0  0  0  0  0  0
   -1.3856    0.8000    0.0000 C   0  0  0  0  0  0  0  0  0  0  0  0
   -1.9980    2.2782    0.0000 H   0  0  0  0  0  0  0  0  0  0  0  0
   -0.7732    2.2782    0.0000 H   0  0  0  0  0  0  0  0  0  0  0  0
   -2.7713   -0.0000    0.0000 C   0  0  0  0  0  0  0  0  0  0  0  0
   -2.1589   -1.4782    0.0000 H   0  0  0  0  0  0  0  0  0  0  0  0
   -3.3835   -1.4782    0.0000 H   0  0  0  0  0  0  0  0  0  0  0  0
   -4.1570    0.8000    0.0000 C   0  0  0  0  0  0  0  0  0  0  0  0
   -4.7692    2.2782    0.0000 H   0  0  0  0  0  0  0  0  0  0  0  0
   -3.5446    2.2782    0.0000 H   0  0  0  0  0  0  0  0  0  0  0  0
   -5.5425   -0.0000    0.0000 C   0  0  0  0  0  0  0  0  0  0  0  0
   -6.9282   -0.8000    0.0000 H   0  0  0  0  0  0  0  0  0  0  0  0
   -6.9282    0.8000    0.0000 H   0  0  0  0  0  0  0  0  0  0  0  0
   -5.5425   -1.6000    0.0000 H   0  0  0  0  0  0  0  0  0  0  0  0
  1  2  1  0  0  0  0
  1  3  1  0  0  0  0
  1  4  1  0  0  0  0
  4  5  1  0  0  0  0
  4  6  1  0  0  0  0
  4  7  1  0  0  0  0
  7  8  1  0  0  0  0
  7  9  1  0  0  0  0
  7 10  1  0  0  0  0
 10 11  1  0  0  0  0
 10 12  1  0  0  0  0
 10 13  1  0  0  0  0
 13 14  1  0  0  0  0
 13 15  1  0  0  0  0
 13 16  1  0  0  0  0
 16 17  1  0  0  0  0
  1 18  1  0  0  0  0
 18 19  1  0  0  0  0
 18 20  1  0  0  0  0
 18 21  1  0  0  0  0
 21 22  1  0  0  0  0
 21 23  1  0  0  0  0
 21 24  1  0  0  0  0
 24 25  1  0  0  0  0
 24 26  1  0  0  0  0
 24 27  1  0  0  0  0
 27 28  1  0  0  0  0
 27 29  1  0  0  0  0
 27 30  1  0  0  0  0
M  END
> <ChemID>
103817

> <source_casrn>
1455-21-6

> <CAS>
1455-21-6

> <SMILES>
CCCCCCCCCS

> <NAME>
1-NONANETHIOL

> <preferred_name>
1-Nonanethiol

> <iupac>
nonane-1-thiol

> <MPID>
22748

> <dsstox_substance_id>
DTXSID9061704

> <Canonical_QSARr>
CCCCCCCCCS

> <InChI_Code_QSARr>
InChI=1S/C9H20S/c1-2-3-4-5-6-7-8-9-10/h10H,2-9H2,1H3

> <InChI Key_QSARr>
ZVEZMVFBMOOHAT-UHFFFAOYSA-N

> <Salt_Solvent>
?

> <BP>
220.0

$$$$
103821
  -INDIGO-08031720192D

 54 54  0  0  0  0  0  0  0  0999 V2000
   -9.6997   -0.8000    0.0000 C   0  0  0  0  0  0  0  0  0  0  0  0
   -9.6997   -2.4000    0.0000 C   0  0  0  0  0  0  0  0  0  0  0  0
   -8.3140   -3.2000    0.0000 H   0  0  0  0  0  0  0  0  0  0  0  0
  -11.0850   -3.2000    0.0000 C   0  0  0  0  0  0  0  0  0  0  0  0
  -11.0850   -4.8000    0.0000 H   0  0  0  0  0  0  0  0  0  0  0  0
  -12.4707   -2.4000    0.0000 C   0  0  0  0  0  0  0  0  0  0  0  0
  -13.8564   -3.2000    0.0000 H   0  0  0  0  0  0  0  0  0  0  0  0
  -12.4707   -0.8000    0.0000 C   0  0  0  0  0  0  0  0  0  0  0  0
  -13.8564   -0.0000    0.0000 H   0  0  0  0  0  0  0  0  0  0  0  0
  -11.0850   -0.0000    0.0000 C   0  0  0  0  0  0  0  0  0  0  0  0
  -11.0850    1.6000    0.0000 H   0  0  0  0  0  0  0  0  0  0  0  0
   -8.3140   -0.0000    0.0000 C   0  0  0  0  0  0  0  0  0  0  0  0
   -7.7016    1.4782    0.0000 H   0  0  0  0  0  0  0  0  0  0  0  0
   -8.9259    1.4782    0.0000 H   0  0  0  0  0  0  0  0  0  0  0  0
   -6.9283   -0.8000    0.0000 C   0  0  0  0  0  0  0  0  0  0  0  0
   -7.5406   -2.2782    0.0000 H   0  0  0  0  0  0  0  0  0  0  0  0
   -6.3159   -2.2782    0.0000 H   0  0  0  0  0  0  0  0  0  0  0  0
   -5.5426   -0.0000    0.0000 C   0  0  0  0  0  0  0  0  0  0  0  0
   -4.9302    1.4782    0.0000 H   0  0  0  0  0  0  0  0  0  0  0  0
   -6.1549    1.4782    0.0000 H   0  0  0  0  0  0  0  0  0  0  0  0
   -4.1569   -0.8000    0.0000 C   0  0  0  0  0  0  0  0  0  0  0  0
   -4.7692   -2.2782    0.0000 H   0  0  0  0  0  0  0  0  0  0  0  0
   -3.5445   -2.2782    0.0000 H   0  0  0  0  0  0  0  0  0  0  0  0
   -2.7712   -0.0000    0.0000 C   0  0  0  0  0  0  0  0  0  0  0  0
   -2.1592    1.4782    0.0000 H   0  0  0  0  0  0  0  0  0  0  0  0
   -3.3835    1.4782    0.0000 H   0  0  0  0  0  0  0  0  0  0  0  0
   -1.3858   -0.8000    0.0000 C   0  0  0  0  0  0  0  0  0  0  0  0
   -1.9978   -2.2782    0.0000 H   0  0  0  0  0  0  0  0  0  0  0  0
   -0.7735   -2.2782    0.0000 H   0  0  0  0  0  0  0  0  0  0  0  0
   -0.0001   -0.0000    0.0000 C   0  0  0  0  0  0  0  0  0  0  0  0
    0.6122    1.4782    0.0000 H   0  0  0  0  0  0  0  0  0  0  0  0
   -0.6121    1.4782    0.0000 H   0  0  0  0  0  0  0  0  0  0  0  0
    1.3856   -0.8000    0.0000 C   0  0  0  0  0  0  0  0  0  0  0  0
    0.7732   -2.2782    0.0000 H   0  0  0  0  0  0  0  0  0  0  0  0
    1.9979   -2.2782    0.0000 H   0  0  0  0  0  0  0  0  0  0  0  0
    2.7713   -0.0000    0.0000 C   0  0  0  0  0  0  0  0  0  0  0  0
    3.3836    1.4782    0.0000 H   0  0  0  0  0  0  0  0  0  0  0  0
    2.1589    1.4782    0.0000 H   0  0  0  0  0  0  0  0  0  0  0  0
    4.1570   -0.8000    0.0000 C   0  0  0  0  0  0  0  0  0  0  0  0
    3.5446   -2.2782    0.0000 H   0  0  0  0  0  0  0  0  0  0  0  0
    4.7693   -2.2782    0.0000 H   0  0  0  0  0  0  0  0  0  0  0  0
    5.5427   -0.0000    0.0000 C   0  0  0  0  0  0  0  0  0  0  0  0
    6.1550    1.4782    0.0000 H   0  0  0  0  0  0  0  0  0  0  0  0
    4.9303    1.4782    0.0000 H   0  0  0  0  0  0  0  0  0  0  0  0
    6.9284   -0.8000    0.0000 C   0  0  0  0  0  0  0  0  0  0  0  0
    6.3160   -2.2782    0.0000 H   0  0  0  0  0  0  0  0  0  0  0  0
    7.5404   -2.2782    0.0000 H   0  0  0  0  0  0  0  0  0  0  0  0
    8.3137   -0.0000    0.0000 C   0  0  0  0  0  0  0  0  0  0  0  0
    8.9261    1.4782    0.0000 H   0  0  0  0  0  0  0  0  0  0  0  0
    7.7017    1.4782    0.0000 H   0  0  0  0  0  0  0  0  0  0  0  0
    9.6994   -0.8000    0.0000 C   0  0  0  0  0  0  0  0  0  0  0  0
   11.0851   -1.6000    0.0000 H   0  0  0  0  0  0  0  0  0  0  0  0
   11.0851   -0.0000    0.0000 H   0  0  0  0  0  0  0  0  0  0  0  0
    9.6994   -2.4000    0.0000 H   0  0  0  0  0  0  0  0  0  0  0  0
  1  2  1  0  0  0  0
  2  3  1  0  0  0  0
  2  4  2  0  0  0  0
  4  5  1  0  0  0  0
  4  6  1  0  0  0  0
  6  7  1  0  0  0  0
  6  8  2  0  0  0  0
  8  9  1  0  0  0  0
  8 10  1  0  0  0  0
 10  1  2  0  0  0  0
 10 11  1  0  0  0  0
  1 12  1  0  0  0  0
 12 13  1  0  0  0  0
 12 14  1  0  0  0  0
 12 15  1  0  0  0  0
 15 16  1  0  0  0  0
 15 17  1  0  0  0  0
 15 18  1  0  0  0  0
 18 19  1  0  0  0  0
 18 20  1  0  0  0  0
 18 21  1  0  0  0  0
 21 22  1  0  0  0  0
 21 23  1  0  0  0  0
 21 24  1  0  0  0  0
 24 25  1  0  0  0  0
 24 26  1  0  0  0  0
 24 27  1  0  0  0  0
 27 28  1  0  0  0  0
 27 29  1  0  0  0  0
 27 30  1  0  0  0  0
 30 31  1  0  0  0  0
 30 32  1  0  0  0  0
 30 33  1  0  0  0  0
 33 34  1  0  0  0  0
 33 35  1  0  0  0  0
 33 36  1  0  0  0  0
 36 37  1  0  0  0  0
 36 38  1  0  0  0  0
 36 39  1  0  0  0  0
 39 40  1  0  0  0  0
 39 41  1  0  0  0  0
 39 42  1  0  0  0  0
 42 43  1  0  0  0  0
 42 44  1  0  0  0  0
 42 45  1  0  0  0  0
 45 46  1  0  0  0  0
 45 47  1  0  0  0  0
 45 48  1  0  0  0  0
 48 49  1  0  0  0  0
 48 50  1  0  0  0  0
 48 51  1  0  0  0  0
 51 52  1  0  0  0  0
 51 53  1  0  0  0  0
 51 54  1  0  0  0  0
M  END
> <ChemID>
103821

> <source_casrn>
1459-10-5

> <CAS>
1459-10-5

> <SMILES>
CCCCCCCCCCCCCCc1ccccc1

> <NAME>
1-PHENYLTETRADECANE

> <preferred_name>
Tetradecylbenzene

> <iupac>
tetradecylbenzene

> <MPID>
22752

> <dsstox_substance_id>
DTXSID1051729

> <Canonical_QSARr>
CCCCCCCCCCCCCCc1ccccc1

> <InChI_Code_QSARr>
InChI=1S/C20H34/c1-2-3-4-5-6-7-8-9-10-11-12-14-17-20-18-15-13-16-19-20/h13,15-16,18-19H,2-12,14,17H2,1H3

> <InChI Key_QSARr>
JZALLXAUNPOCEU-UHFFFAOYSA-N

> <Salt_Solvent>
?

> <BP>
359.0

$$$$
103825
  -INDIGO-08031720192D

 20 20  0  0  0  0  0  0  0  0999 V2000
    1.3856    2.4000    0.0000 N   0  0  0  0  0  0  0  0  0  0  0  0
    2.7713    1.6000    0.0000 C   0  0  0  0  0  0  0  0  0  0  0  0
    4.1570    2.4000    0.0000 C   0  0  0  0  0  0  0  0  0  0  0  0
    5.5426    3.2000    0.0000 H   0  0  0  0  0  0  0  0  0  0  0  0
    4.1570    4.0000    0.0000 H   0  0  0  0  0  0  0  0  0  0  0  0
    5.5426    1.6000    0.0000 H   0  0  0  0  0  0  0  0  0  0  0  0
    2.7713    0.0000    0.0000 C   0  0  0  0  0  0  0  0  0  0  0  0
    4.1569   -0.8000    0.0000 H   0  0  0  0  0  0  0  0  0  0  0  0
    1.3856   -0.8000    0.0000 C   0  0  0  0  0  0  0  0  0  0  0  0
    1.3856   -2.4000    0.0000 H   0  0  0  0  0  0  0  0  0  0  0  0
    0.0000    0.0000    0.0000 C   0  0  0  0  0  0  0  0  0  0  0  0
   -1.3857   -0.8000    0.0000 C   0  0  0  0  0  0  0  0  0  0  0  0
   -2.7713   -1.6000    0.0000 H   0  0  0  0  0  0  0  0  0  0  0  0
   -1.3857   -2.4000    0.0000 H   0  0  0  0  0  0  0  0  0  0  0  0
   -2.7713    0.0000    0.0000 H   0  0  0  0  0  0  0  0  0  0  0  0
    0.0000    1.6000    0.0000 C   0  0  0  0  0  0  0  0  0  0  0  0
   -1.3856    2.4000    0.0000 C   0  0  0  0  0  0  0  0  0  0  0  0
   -2.7713    3.2000    0.0000 H   0  0  0  0  0  0  0  0  0  0  0  0
   -1.3856    4.0000    0.0000 H   0  0  0  0  0  0  0  0  0  0  0  0
   -2.7713    1.6000    0.0000 H   0  0  0  0  0  0  0  0  0  0  0  0
  1  2  1  0  0  0  0
  2  3  1  0  0  0  0
  3  4  1  0  0  0  0
  3  5  1  0  0  0  0
  3  6  1  0  0  0  0
  2  7  2  0  0  0  0
  7  8  1  0  0  0  0
  7  9  1  0  0  0  0
  9 10  1  0  0  0  0
  9 11  2  0  0  0  0
 11 12  1  0  0  0  0
 12 13  1  0  0  0  0
 12 14  1  0  0  0  0
 12 15  1  0  0  0  0
 11 16  1  0  0  0  0
 16  1  2  0  0  0  0
 16 17  1  0  0  0  0
 17 18  1  0  0  0  0
 17 19  1  0  0  0  0
 17 20  1  0  0  0  0
M  END
> <ChemID>
103825

> <source_casrn>
1462-84-6

> <CAS>
1462-84-6

> <SMILES>
Cc1ccc(C)[n]c1C

> <NAME>
Pyridine, 2,3,6-trimethyl-

> <preferred_name>
2,3,6-Trimethylpyridine

> <iupac>
2,3,6-trimethylpyridine

> <MPID>
22756

> <dsstox_substance_id>
DTXSID5051731

> <Canonical_QSARr>
Cc1ccc(C)[n]c1C

> <InChI_Code_QSARr>
InChI=1S/C8H11N/c1-6-4-5-7(2)9-8(6)3/h4-5H,1-3H3

> <InChI Key_QSARr>
UTBIMNXEDGNJFE-UHFFFAOYSA-N

> <Salt_Solvent>
?

> <BP>
171.6

$$$$
103830
  -INDIGO-08031720192D

 14 14  0  0  0  0  0  0  0  0999 V2000
   -1.7323    1.9239    0.0000 S   0  0  0  0  0  0  0  0  0  0  0  0
   -0.1672    1.5912    0.0000 C   0  0  0  0  0  0  0  0  0  0  0  0
    1.0218    2.6618    0.0000 H   0  0  0  0  0  0  0  0  0  0  0  0
   -0.0000   -0.0000    0.0000 C   0  0  0  0  0  0  0  0  0  0  0  0
    1.3857   -0.8000    0.0000 C   0  0  0  0  0  0  0  0  0  0  0  0
    1.3857   -2.4000    0.0000 O   0  0  0  0  0  0  0  0  0  0  0  0
    2.7712   -0.0000    0.0000 C   0  0  0  0  0  0  0  0  0  0  0  0
    4.1569    0.8000    0.0000 H   0  0  0  0  0  0  0  0  0  0  0  0
    4.1569   -0.8000    0.0000 H   0  0  0  0  0  0  0  0  0  0  0  0
    2.7712    1.6000    0.0000 H   0  0  0  0  0  0  0  0  0  0  0  0
   -1.4617   -0.6508    0.0000 C   0  0  0  0  0  0  0  0  0  0  0  0
   -1.7944   -2.2158    0.0000 H   0  0  0  0  0  0  0  0  0  0  0  0
   -2.5322    0.5382    0.0000 C   0  0  0  0  0  0  0  0  0  0  0  0
   -4.1235    0.3710    0.0000 H   0  0  0  0  0  0  0  0  0  0  0  0
  1  2  1  0  0  0  0
  2  3  1  0  0  0  0
  2  4  2  0  0  0  0
  4  5  1  0  0  0  0
  5  6  2  0  0  0  0
  5  7  1  0  0  0  0
  7  8  1  0  0  0  0
  7  9  1  0  0  0  0
  7 10  1  0  0  0  0
  4 11  1  0  0  0  0
 11 12  1  0  0  0  0
 11 13  2  0  0  0  0
 13  1  1  0  0  0  0
 13 14  1  0  0  0  0
M  END
> <ChemID>
103830

> <source_casrn>
1468-83-3

> <CAS>
1468-83-3

> <SMILES>
CC(=O)c1cc[s]c1

> <NAME>
3-ACETYLTHIOPHENE

> <preferred_name>
Methyl 3-thienyl ketone

> <iupac>
1-thiophen-3-ylethanone

> <MPID>
22761

> <dsstox_substance_id>
DTXSID10163498

> <Canonical_QSARr>
CC(=O)c1cc[s]c1

> <InChI_Code_QSARr>
InChI=1S/C6H6OS/c1-5(7)6-2-3-8-4-6/h2-4H,1H3

> <InChI Key_QSARr>
RNIDWJDZNNVFDY-UHFFFAOYSA-N

> <Salt_Solvent>
?

> <BP>
210.0

$$$$
103835
  -INDIGO-08031720192D

 11 10  0  0  0  0  0  0  0  0999 V2000
    0.0001    0.0000    0.0000 C   0  0  0  0  0  0  0  0  0  0  0  0
    0.6123   -1.4782    0.0000 H   0  0  0  0  0  0  0  0  0  0  0  0
   -0.6123   -1.4782    0.0000 H   0  0  0  0  0  0  0  0  0  0  0  0
   -1.3856    0.8000    0.0000 N   0  0  0  0  0  0  0  0  0  0  0  0
   -2.7713    0.0000    0.0000 C   0  0  0  0  0  0  0  0  0  0  0  0
   -4.1569   -0.8000    0.0000 O   0  0  0  0  0  0  0  0  0  0  0  0
    1.3856    0.8000    0.0000 C   0  0  0  0  0  0  0  0  0  0  0  0
    1.3856    2.4000    0.0000 H   0  0  0  0  0  0  0  0  0  0  0  0
    2.7713    0.0000    0.0000 C   0  0  0  0  0  0  0  0  0  0  0  0
    4.1569    0.8000    0.0000 H   0  0  0  0  0  0  0  0  0  0  0  0
    2.7713   -1.6000    0.0000 H   0  0  0  0  0  0  0  0  0  0  0  0
  1  2  1  0  0  0  0
  1  3  1  0  0  0  0
  1  4  1  0  0  0  0
  4  5  2  0  0  0  0
  5  6  2  0  0  0  0
  1  7  1  0  0  0  0
  7  8  1  0  0  0  0
  7  9  2  0  0  0  0
  9 10  1  0  0  0  0
  9 11  1  0  0  0  0
M  END
> <ChemID>
103835

> <source_casrn>
1476-23-9

> <CAS>
1476-23-9

> <SMILES>
C=CCN=C=O

> <NAME>
1-Propene, 3-isocyanato-

> <preferred_name>
1-Propene, 3-isocyanato-

> <iupac>
3-isocyanatoprop-1-ene

> <MPID>
22766

> <dsstox_substance_id>
DTXSID8061719

> <Canonical_QSARr>
C=CCN=C=O

> <InChI_Code_QSARr>
InChI=1S/C4H5NO/c1-2-3-5-4-6/h2H,1,3H2

> <InChI Key_QSARr>
HXBPYFMVGFDZFT-UHFFFAOYSA-N

> <Salt_Solvent>
?

> <BP>
88.0

$$$$
103839
  -INDIGO-08031720192D

 13 13  0  0  0  0  0  0  0  0999 V2000
    0.0001    0.0000    0.0000 C   0  0  0  0  0  0  0  0  0  0  0  0
    0.3326   -1.5650    0.0000 O   0  0  0  0  0  0  0  0  0  0  0  0
    1.9239   -1.7323    0.0000 C   0  0  0  0  0  0  0  0  0  0  0  0
    2.7239   -3.1179    0.0000 H   0  0  0  0  0  0  0  0  0  0  0  0
    2.5747   -0.2706    0.0000 C   0  0  0  0  0  0  0  0  0  0  0  0
    4.1397    0.0621    0.0000 H   0  0  0  0  0  0  0  0  0  0  0  0
    1.3856    0.8000    0.0000 C   0  0  0  0  0  0  0  0  0  0  0  0
    1.5528    2.3912    0.0000 H   0  0  0  0  0  0  0  0  0  0  0  0
   -1.4617    0.6508    0.0000 C   0  0  0  0  0  0  0  0  0  0  0  0
   -1.6290    2.2420    0.0000 H   0  0  0  0  0  0  0  0  0  0  0  0
   -2.7561   -0.2897    0.0000 C   0  0  0  0  0  0  0  0  0  0  0  0
   -4.2178    0.3611    0.0000 H   0  0  0  0  0  0  0  0  0  0  0  0
   -2.5889   -1.8809    0.0000 H   0  0  0  0  0  0  0  0  0  0  0  0
  1  2  1  0  0  0  0
  2  3  1  0  0  0  0
  3  4  1  0  0  0  0
  3  5  2  0  0  0  0
  5  6  1  0  0  0  0
  5  7  1  0  0  0  0
  7  1  2  0  0  0  0
  7  8  1  0  0  0  0
  1  9  1  0  0  0  0
  9 10  1  0  0  0  0
  9 11  2  0  0  0  0
 11 12  1  0  0  0  0
 11 13  1  0  0  0  0
M  END
> <ChemID>
103839

> <source_casrn>
1487-18-9

> <CAS>
1487-18-9

> <SMILES>
C=Cc1ccco1

> <NAME>
2-VINYLFURAN

> <preferred_name>
Furan, 2-ethenyl-

> <iupac>
2-Ethenylfuran

> <MPID>
22770

> <dsstox_substance_id>
DTXSID8073261

> <Canonical_QSARr>
C=Cc1ccco1

> <InChI_Code_QSARr>
InChI=1S/C6H6O/c1-2-6-4-3-5-7-6/h2-5H,1H2

> <InChI Key_QSARr>
QQBUHYQVKJQAOB-UHFFFAOYSA-N

> <Salt_Solvent>
?

> <BP>
99.5

$$$$
103843
  -INDIGO-08031720192D

  5  4  0  0  0  0  0  0  0  0999 V2000
   -0.8000   -1.3856    0.0000 I   0  0  0  0  0  0  0  0  0  0  0  0
    0.0000    0.0000    0.0000 C   0  0  0  0  0  0  0  0  0  0  0  0
    0.8000    1.3856    0.0000 H   0  0  0  0  0  0  0  0  0  0  0  0
   -1.3856    0.8000    0.0000 F   0  0  0  0  0  0  0  0  0  0  0  0
    1.3856   -0.8000    0.0000 F   0  0  0  0  0  0  0  0  0  0  0  0
  1  2  1  0  0  0  0
  2  3  1  0  0  0  0
  2  4  1  0  0  0  0
  2  5  1  0  0  0  0
M  END
> <ChemID>
103843

> <source_casrn>
1493-03-4

> <CAS>
1493-03-4

> <SMILES>
FC(F)I

> <NAME>
Difluoroiodomethane

> <preferred_name>
Difluoroiodomethane

> <iupac>
CHF2I

> <MPID>
22774

> <dsstox_substance_id>
DTXSID90379419

> <Canonical_QSARr>
FC(F)I

> <InChI_Code_QSARr>
InChI=1S/CHF2I/c2-1(3)4/h1H

> <InChI Key_QSARr>
YSLFMGDEEXOKHF-UHFFFAOYSA-N

> <Salt_Solvent>
?

> <BP>
21.6

$$$$
103847
  -INDIGO-08031720192D

  5  4  0  0  0  0  0  0  0  0999 V2000
    0.0000    0.0000    0.0000 C   0  0  0  0  0  0  0  0  0  0  0  0
    0.8000    1.3856    0.0000 H   0  0  0  0  0  0  0  0  0  0  0  0
   -1.3856    0.8000    0.0000 F   0  0  0  0  0  0  0  0  0  0  0  0
    1.3856   -0.8000    0.0000 F   0  0  0  0  0  0  0  0  0  0  0  0
   -0.8000   -1.3856    0.0000 Br  0  0  0  0  0  0  0  0  0  0  0  0
  1  2  1  0  0  0  0
  1  3  1  0  0  0  0
  1  4  1  0  0  0  0
  1  5  1  0  0  0  0
M  END
> <ChemID>
103847

> <source_casrn>
1511-62-2

> <CAS>
1511-62-2

> <SMILES>
FC(F)Br

> <NAME>
Bromodifluoromethane

> <preferred_name>
Bromodifluoromethane

> <iupac>
bromo-difluoromethane

> <MPID>
22778

> <dsstox_substance_id>
DTXSID5061740

> <Canonical_QSARr>
FC(F)Br

> <InChI_Code_QSARr>
InChI=1S/CHBrF2/c2-1(3)4/h1H

> <InChI Key_QSARr>
GRCDJFHYVYUNHM-UHFFFAOYSA-N

> <Salt_Solvent>
?

> <BP>
-15.5

$$$$
103852
  -INDIGO-08031720192D

 15 14  0  0  0  0  0  0  0  0999 V2000
    1.3856    2.4000    0.0000 O   0  0  0  0  0  0  0  0  0  0  0  0
    1.3856    0.8000    0.0000 C   0  0  0  0  0  0  0  0  0  0  0  0
    2.7713    0.0000    0.0000 C   0  0  0  0  0  0  0  0  0  0  0  0
    4.1569   -0.8000    0.0000 F   0  0  0  0  0  0  0  0  0  0  0  0
    4.1569    0.8000    0.0000 F   0  0  0  0  0  0  0  0  0  0  0  0
    2.7713   -1.6000    0.0000 F   0  0  0  0  0  0  0  0  0  0  0  0
    0.0001    0.0000    0.0000 C   0  0  0  0  0  0  0  0  0  0  0  0
    0.6123   -1.4782    0.0000 H   0  0  0  0  0  0  0  0  0  0  0  0
   -0.6123   -1.4782    0.0000 H   0  0  0  0  0  0  0  0  0  0  0  0
   -1.3856    0.8000    0.0000 C   0  0  0  0  0  0  0  0  0  0  0  0
   -1.3856    2.4000    0.0000 O   0  0  0  0  0  0  0  0  0  0  0  0
   -2.7713    0.0000    0.0000 C   0  0  0  0  0  0  0  0  0  0  0  0
   -4.1569   -0.8000    0.0000 F   0  0  0  0  0  0  0  0  0  0  0  0
   -4.1569    0.8000    0.0000 F   0  0  0  0  0  0  0  0  0  0  0  0
   -2.7713   -1.6000    0.0000 F   0  0  0  0  0  0  0  0  0  0  0  0
  1  2  2  0  0  0  0
  2  3  1  0  0  0  0
  3  4  1  0  0  0  0
  3  5  1  0  0  0  0
  3  6  1  0  0  0  0
  2  7  1  0  0  0  0
  7  8  1  0  0  0  0
  7  9  1  0  0  0  0
  7 10  1  0  0  0  0
 10 11  2  0  0  0  0
 10 12  1  0  0  0  0
 12 13  1  0  0  0  0
 12 14  1  0  0  0  0
 12 15  1  0  0  0  0
M  END
> <ChemID>
103852

> <source_casrn>
1522-22-1

> <CAS>
1522-22-1

> <SMILES>
O=C(CC(=O)C(F)(F)F)C(F)(F)F

> <NAME>
2,4-Pentanedione, 1,1,1,5,5,5-hexafluoro-

> <preferred_name>
2,4-Pentanedione, 1,1,1,5,5,5-hexafluoro-

> <iupac>
1,1,1,5,5,5-Hexafluoropentane-2,4-dione

> <MPID>
22783

> <dsstox_substance_id>
DTXSID4061753

> <Canonical_QSARr>
O=C(CC(=O)C(F)(F)F)C(F)(F)F

> <InChI_Code_QSARr>
InChI=1S/C5H2F6O2/c6-4(7,8)2(12)1-3(13)5(9,10)11/h1H2

> <InChI Key_QSARr>
QAMFBRUWYYMMGJ-UHFFFAOYSA-N

> <Salt_Solvent>
?

> <BP>
70.0

$$$$
103856
  -INDIGO-08031720192D

 31 32  0  0  0  0  0  0  0  0999 V2000
    0.0000    0.0000    0.0000 C   0  0  0  0  0  0  0  0  0  0  0  0
    0.2779   -1.5758    0.0000 H   0  0  0  0  0  0  0  0  0  0  0  0
   -0.2779    1.5757    0.0000 C   0  0  0  0  0  0  0  0  0  0  0  0
    1.2481    2.0569    0.0000 H   0  0  0  0  0  0  0  0  0  0  0  0
    0.4610    2.9950    0.0000 H   0  0  0  0  0  0  0  0  0  0  0  0
   -1.7813    2.1229    0.0000 C   0  0  0  0  0  0  0  0  0  0  0  0
   -2.0592    3.6986    0.0000 H   0  0  0  0  0  0  0  0  0  0  0  0
   -3.2849    2.6701    0.0000 H   0  0  0  0  0  0  0  0  0  0  0  0
   -0.5558    3.1514    0.0000 H   0  0  0  0  0  0  0  0  0  0  0  0
   -1.3856   -0.8000    0.0000 C   0  0  0  0  0  0  0  0  0  0  0  0
   -2.7714    0.0000    0.0000 C   0  0  0  0  0  0  0  0  0  0  0  0
   -2.7714    1.6000    0.0000 H   0  0  0  0  0  0  0  0  0  0  0  0
   -4.1570   -0.8000    0.0000 C   0  0  0  0  0  0  0  0  0  0  0  0
   -5.5426    0.0000    0.0000 H   0  0  0  0  0  0  0  0  0  0  0  0
   -4.1570   -2.4000    0.0000 C   0  0  0  0  0  0  0  0  0  0  0  0
   -5.5426   -3.2000    0.0000 H   0  0  0  0  0  0  0  0  0  0  0  0
   -2.7714   -3.2000    0.0000 C   0  0  0  0  0  0  0  0  0  0  0  0
   -2.7714   -4.8000    0.0000 H   0  0  0  0  0  0  0  0  0  0  0  0
   -1.3856   -2.4000    0.0000 C   0  0  0  0  0  0  0  0  0  0  0  0
    0.0000   -3.2000    0.0000 H   0  0  0  0  0  0  0  0  0  0  0  0
    1.5757    0.2779    0.0000 C   0  0  0  0  0  0  0  0  0  0  0  0
    2.3757    1.6635    0.0000 C   0  0  0  0  0  0  0  0  0  0  0  0
    1.5757    3.0492    0.0000 H   0  0  0  0  0  0  0  0  0  0  0  0
    3.9757    1.6635    0.0000 C   0  0  0  0  0  0  0  0  0  0  0  0
    4.7757    3.0492    0.0000 H   0  0  0  0  0  0  0  0  0  0  0  0
    4.7757    0.2779    0.0000 C   0  0  0  0  0  0  0  0  0  0  0  0
    6.3757    0.2779    0.0000 H   0  0  0  0  0  0  0  0  0  0  0  0
    3.9757   -1.1079    0.0000 C   0  0  0  0  0  0  0  0  0  0  0  0
    4.7757   -2.4935    0.0000 H   0  0  0  0  0  0  0  0  0  0  0  0
    2.3757   -1.1079    0.0000 C   0  0  0  0  0  0  0  0  0  0  0  0
    1.5757   -2.4935    0.0000 H   0  0  0  0  0  0  0  0  0  0  0  0
  1  2  1  0  0  0  0
  1  3  1  0  0  0  0
  3  4  1  0  0  0  0
  3  5  1  0  0  0  0
  3  6  1  0  0  0  0
  6  7  1  0  0  0  0
  6  8  1  0  0  0  0
  6  9  1  0  0  0  0
  1 10  1  0  0  0  0
 10 11  1  0  0  0  0
 11 12  1  0  0  0  0
 11 13  2  0  0  0  0
 13 14  1  0  0  0  0
 13 15  1  0  0  0  0
 15 16  1  0  0  0  0
 15 17  2  0  0  0  0
 17 18  1  0  0  0  0
 17 19  1  0  0  0  0
 19 10  2  0  0  0  0
 19 20  1  0  0  0  0
  1 21  1  0  0  0  0
 21 22  1  0  0  0  0
 22 23  1  0  0  0  0
 22 24  2  0  0  0  0
 24 25  1  0  0  0  0
 24 26  1  0  0  0  0
 26 27  1  0  0  0  0
 26 28  2  0  0  0  0
 28 29  1  0  0  0  0
 28 30  1  0  0  0  0
 30 21  2  0  0  0  0
 30 31  1  0  0  0  0
M  END
> <ChemID>
103856

> <source_casrn>
1530-03-6

> <CAS>
NOCAS_865187

> <SMILES>
CCC(c1ccccc1)c1ccccc1

> <NAME>
1,1-DIPHENYLPROPANE

> <preferred_name>


> <iupac>


> <MPID>
22787

> <dsstox_substance_id>
DTXSID10865187

> <Canonical_QSARr>
CCC(c1ccccc1)c1ccccc1

> <InChI_Code_QSARr>
InChI=1S/C15H16/c1-2-15(13-9-5-3-6-10-13)14-11-7-4-8-12-14/h3-12,15H,2H2,1H3

> <InChI Key_QSARr>
BUZMJVBOGDBMGI-UHFFFAOYSA-N

> <Salt_Solvent>
?

> <BP>
281.6

$$$$
103861
  -INDIGO-08031720192D

 31 30  0  0  0  0  0  0  0  0999 V2000
    1.3856   -0.8000    0.0000 C   0  0  0  0  0  0  0  0  0  0  0  0
    1.3856   -2.4000    0.0000 O   0  0  0  0  0  0  0  0  0  0  0  0
    2.7713    0.0000    0.0000 O   0  0  0  0  0  0  0  0  0  0  0  0
    4.1569   -0.8000    0.0000 C   0  0  0  0  0  0  0  0  0  0  0  0
    3.5447   -2.2782    0.0000 H   0  0  0  0  0  0  0  0  0  0  0  0
    4.7693   -2.2782    0.0000 H   0  0  0  0  0  0  0  0  0  0  0  0
    5.5427    0.0000    0.0000 C   0  0  0  0  0  0  0  0  0  0  0  0
    6.9282    0.8000    0.0000 H   0  0  0  0  0  0  0  0  0  0  0  0
    6.9282   -0.8000    0.0000 H   0  0  0  0  0  0  0  0  0  0  0  0
    5.5427    1.6000    0.0000 H   0  0  0  0  0  0  0  0  0  0  0  0
    0.0000    0.0000    0.0000 C   0  0  0  0  0  0  0  0  0  0  0  0
   -1.3857    0.8000    0.0000 H   0  0  0  0  0  0  0  0  0  0  0  0
   -1.0284   -1.2257    0.0000 C   0  0  0  0  0  0  0  0  0  0  0  0
    0.0525   -2.4053    0.0000 H   0  0  0  0  0  0  0  0  0  0  0  0
   -1.0983   -2.8242    0.0000 H   0  0  0  0  0  0  0  0  0  0  0  0
   -2.6041   -0.9478    0.0000 C   0  0  0  0  0  0  0  0  0  0  0  0
   -3.6850    0.2319    0.0000 H   0  0  0  0  0  0  0  0  0  0  0  0
   -2.5344    0.6506    0.0000 H   0  0  0  0  0  0  0  0  0  0  0  0
   -3.6327   -2.1735    0.0000 C   0  0  0  0  0  0  0  0  0  0  0  0
   -2.5516   -3.3531    0.0000 H   0  0  0  0  0  0  0  0  0  0  0  0
   -3.7024   -3.7720    0.0000 H   0  0  0  0  0  0  0  0  0  0  0  0
   -5.2083   -1.8957    0.0000 C   0  0  0  0  0  0  0  0  0  0  0  0
   -6.7840   -1.6178    0.0000 H   0  0  0  0  0  0  0  0  0  0  0  0
   -6.2368   -3.1213    0.0000 H   0  0  0  0  0  0  0  0  0  0  0  0
   -5.7556   -0.3922    0.0000 H   0  0  0  0  0  0  0  0  0  0  0  0
    0.7999    1.3856    0.0000 C   0  0  0  0  0  0  0  0  0  0  0  0
    2.3999    1.3856    0.0000 O   0  0  0  0  0  0  0  0  0  0  0  0
    0.0000    2.7713    0.0000 C   0  0  0  0  0  0  0  0  0  0  0  0
   -0.8001    4.1569    0.0000 H   0  0  0  0  0  0  0  0  0  0  0  0
    0.7999    4.1569    0.0000 H   0  0  0  0  0  0  0  0  0  0  0  0
   -1.6000    2.7713    0.0000 H   0  0  0  0  0  0  0  0  0  0  0  0
  1  2  2  0  0  0  0
  1  3  1  0  0  0  0
  3  4  1  0  0  0  0
  4  5  1  0  0  0  0
  4  6  1  0  0  0  0
  4  7  1  0  0  0  0
  7  8  1  0  0  0  0
  7  9  1  0  0  0  0
  7 10  1  0  0  0  0
  1 11  1  0  0  0  0
 11 12  1  0  0  0  0
 11 13  1  0  0  0  0
 13 14  1  0  0  0  0
 13 15  1  0  0  0  0
 13 16  1  0  0  0  0
 16 17  1  0  0  0  0
 16 18  1  0  0  0  0
 16 19  1  0  0  0  0
 19 20  1  0  0  0  0
 19 21  1  0  0  0  0
 19 22  1  0  0  0  0
 22 23  1  0  0  0  0
 22 24  1  0  0  0  0
 22 25  1  0  0  0  0
 11 26  1  0  0  0  0
 26 27  2  0  0  0  0
 26 28  1  0  0  0  0
 28 29  1  0  0  0  0
 28 30  1  0  0  0  0
 28 31  1  0  0  0  0
M  END
> <ChemID>
103861

> <source_casrn>
1540-29-0

> <CAS>
NOCAS_862687

> <SMILES>
CC(=O)C(CCCC)C(=O)OCC

> <NAME>
HEXANOIC ACID, 2-ACETYL-, ETHYL ESTER

> <preferred_name>


> <iupac>


> <MPID>
22791

> <dsstox_substance_id>
DTXSID20862687

> <Canonical_QSARr>
CC(=O)C(CCCC)C(=O)OCC

> <InChI_Code_QSARr>
InChI=1S/C10H18O3/c1-4-6-7-9(8(3)11)10(12)13-5-2/h9H,4-7H2,1-3H3

> <InChI Key_QSARr>
ZTOQBHVLCJERBS-UHFFFAOYSA-N

> <Salt_Solvent>
?

> <BP>
221.5

$$$$
103865
  -INDIGO-08031720192D

 23 22  0  0  0  0  0  0  0  0999 V2000
   -0.6122   -1.4782    0.0000 F   0  0  0  0  0  0  0  0  0  0  0  0
   -0.0001    0.0000    0.0000 C   0  0  0  0  0  0  0  0  0  0  0  0
    0.6123   -1.4782    0.0000 F   0  0  0  0  0  0  0  0  0  0  0  0
    1.3856    0.8000    0.0000 C   0  0  0  0  0  0  0  0  0  0  0  0
    0.7733    2.2782    0.0000 F   0  0  0  0  0  0  0  0  0  0  0  0
    1.9980    2.2782    0.0000 F   0  0  0  0  0  0  0  0  0  0  0  0
    2.7713    0.0000    0.0000 C   0  0  0  0  0  0  0  0  0  0  0  0
    3.3835   -1.4782    0.0000 F   0  0  0  0  0  0  0  0  0  0  0  0
    2.1590   -1.4782    0.0000 F   0  0  0  0  0  0  0  0  0  0  0  0
    4.1569    0.8000    0.0000 C   0  0  0  0  0  0  0  0  0  0  0  0
    5.5426    1.6000    0.0000 H   0  0  0  0  0  0  0  0  0  0  0  0
    5.5426    0.0000    0.0000 F   0  0  0  0  0  0  0  0  0  0  0  0
    4.1569    2.4000    0.0000 F   0  0  0  0  0  0  0  0  0  0  0  0
   -1.3856    0.8000    0.0000 C   0  0  0  0  0  0  0  0  0  0  0  0
   -1.9979    2.2782    0.0000 F   0  0  0  0  0  0  0  0  0  0  0  0
   -0.7734    2.2782    0.0000 F   0  0  0  0  0  0  0  0  0  0  0  0
   -2.7713    0.0000    0.0000 C   0  0  0  0  0  0  0  0  0  0  0  0
   -2.1589   -1.4782    0.0000 F   0  0  0  0  0  0  0  0  0  0  0  0
   -3.3836   -1.4782    0.0000 F   0  0  0  0  0  0  0  0  0  0  0  0
   -4.1570    0.8000    0.0000 C   0  0  0  0  0  0  0  0  0  0  0  0
   -5.5425    0.0000    0.0000 O   0  0  0  0  0  0  0  0  0  0  0  0
   -6.9282    0.8000    0.0000 H   0  0  0  0  0  0  0  0  0  0  0  0
   -4.1570    2.4000    0.0000 O   0  0  0  0  0  0  0  0  0  0  0  0
  1  2  1  0  0  0  0
  2  3  1  0  0  0  0
  2  4  1  0  0  0  0
  4  5  1  0  0  0  0
  4  6  1  0  0  0  0
  4  7  1  0  0  0  0
  7  8  1  0  0  0  0
  7  9  1  0  0  0  0
  7 10  1  0  0  0  0
 10 11  1  0  0  0  0
 10 12  1  0  0  0  0
 10 13  1  0  0  0  0
  2 14  1  0  0  0  0
 14 15  1  0  0  0  0
 14 16  1  0  0  0  0
 14 17  1  0  0  0  0
 17 18  1  0  0  0  0
 17 19  1  0  0  0  0
 17 20  1  0  0  0  0
 20 21  1  0  0  0  0
 21 22  1  0  0  0  0
 20 23  2  0  0  0  0
M  END
> <ChemID>
103865

> <source_casrn>
1546-95-8

> <CAS>
1546-95-8

> <SMILES>
OC(=O)C(F)(F)C(F)(F)C(F)(F)C(F)(F)C(F)(F)C(F)F

> <NAME>
Heptanoic acid, 2,2,3,3,4,4,5,5,6,6,7,7-dodecafl

> <preferred_name>
Heptanoic acid, 2,2,3,3,4,4,5,5,6,6,7,7-dodecafluoro-

> <iupac>
2,2,3,3,4,4,5,5,6,6,7,7-Dodecafluoroheptanoic acid

> <MPID>
22795

> <dsstox_substance_id>
DTXSID70165670

> <Canonical_QSARr>
OC(=O)C(F)(F)C(F)(F)C(F)(F)C(F)(F)C(F)(F)C(F)F

> <InChI_Code_QSARr>
InChI=1S/C7H2F12O2/c8-1(9)3(10,11)5(14,15)7(18,19)6(16,17)4(12,13)2(20)21/h1H,(H,20,21)

> <InChI Key_QSARr>
JZHDEEOTEUVLHR-UHFFFAOYSA-N

> <Salt_Solvent>
?

> <BP>
192.0

$$$$
103869
  -INDIGO-08031720192D

 18 18  0  0  0  0  0  0  0  0999 V2000
   -2.0162    2.0161    0.0000 S   0  0  0  0  0  0  0  0  0  0  0  0
   -1.5217    0.4944    0.0000 C   0  0  0  0  0  0  0  0  0  0  0  0
   -0.0000   -0.0000    0.0000 C   0  0  0  0  0  0  0  0  0  0  0  0
   -0.2916   -1.5732    0.0000 H   0  0  0  0  0  0  0  0  0  0  0  0
    0.9063   -1.3186    0.0000 H   0  0  0  0  0  0  0  0  0  0  0  0
    1.1891    1.0706    0.0000 C   0  0  0  0  0  0  0  0  0  0  0  0
    1.4807    2.6438    0.0000 H   0  0  0  0  0  0  0  0  0  0  0  0
    0.2828    2.3892    0.0000 H   0  0  0  0  0  0  0  0  0  0  0  0
    2.7108    0.5761    0.0000 C   0  0  0  0  0  0  0  0  0  0  0  0
    4.2324    0.0817    0.0000 H   0  0  0  0  0  0  0  0  0  0  0  0
    3.8998    1.6468    0.0000 H   0  0  0  0  0  0  0  0  0  0  0  0
    3.0434   -0.9889    0.0000 H   0  0  0  0  0  0  0  0  0  0  0  0
   -2.8161   -0.4460    0.0000 C   0  0  0  0  0  0  0  0  0  0  0  0
   -2.8161   -2.0460    0.0000 H   0  0  0  0  0  0  0  0  0  0  0  0
   -4.1106    0.4944    0.0000 C   0  0  0  0  0  0  0  0  0  0  0  0
   -5.6322   -0.0000    0.0000 H   0  0  0  0  0  0  0  0  0  0  0  0
   -3.6161    2.0161    0.0000 C   0  0  0  0  0  0  0  0  0  0  0  0
   -4.5566    3.3105    0.0000 H   0  0  0  0  0  0  0  0  0  0  0  0
  1  2  1  0  0  0  0
  2  3  1  0  0  0  0
  3  4  1  0  0  0  0
  3  5  1  0  0  0  0
  3  6  1  0  0  0  0
  6  7  1  0  0  0  0
  6  8  1  0  0  0  0
  6  9  1  0  0  0  0
  9 10  1  0  0  0  0
  9 11  1  0  0  0  0
  9 12  1  0  0  0  0
  2 13  2  0  0  0  0
 13 14  1  0  0  0  0
 13 15  1  0  0  0  0
 15 16  1  0  0  0  0
 15 17  2  0  0  0  0
 17  1  1  0  0  0  0
 17 18  1  0  0  0  0
M  END
> <ChemID>
103869

> <source_casrn>
1551-27-5

> <CAS>
1551-27-5

> <SMILES>
CCCc1ccc[s]1

> <NAME>
THIOPHENE, 2-PROPYL-

> <preferred_name>
Isopropylthiophene

> <iupac>
2-Propylthiophene

> <MPID>
22799

> <dsstox_substance_id>
DTXSID50165810

> <Canonical_QSARr>
CCCc1ccc[s]1

> <InChI_Code_QSARr>
InChI=1S/C7H10S/c1-2-4-7-5-3-6-8-7/h3,5-6H,2,4H2,1H3

> <InChI Key_QSARr>
BTXIJTYYMLCUHI-UHFFFAOYSA-N

> <Salt_Solvent>
?

> <BP>
158.0

$$$$
103874
  -INDIGO-08031720192D

 15 15  0  0  0  0  0  0  0  0999 V2000
   -0.0000    0.0000    0.0000 C   0  0  0  0  0  0  0  0  0  0  0  0
    0.1673    1.5912    0.0000 H   0  0  0  0  0  0  0  0  0  0  0  0
   -0.4944   -1.5217    0.0000 C   0  0  0  0  0  0  0  0  0  0  0  0
   -1.9561   -0.8709    0.0000 H   0  0  0  0  0  0  0  0  0  0  0  0
   -1.2944   -2.9073    0.0000 H   0  0  0  0  0  0  0  0  0  0  0  0
    0.8000   -2.4621    0.0000 C   0  0  0  0  0  0  0  0  0  0  0  0
   -0.2706   -3.6512    0.0000 H   0  0  0  0  0  0  0  0  0  0  0  0
    1.8706   -3.6512    0.0000 H   0  0  0  0  0  0  0  0  0  0  0  0
    2.0944   -1.5217    0.0000 C   0  0  0  0  0  0  0  0  0  0  0  0
    2.8944   -2.9073    0.0000 H   0  0  0  0  0  0  0  0  0  0  0  0
    3.5561   -0.8709    0.0000 H   0  0  0  0  0  0  0  0  0  0  0  0
    1.6000    0.0000    0.0000 C   0  0  0  0  0  0  0  0  0  0  0  0
    3.1651    0.3327    0.0000 H   0  0  0  0  0  0  0  0  0  0  0  0
    1.4327    1.5912    0.0000 H   0  0  0  0  0  0  0  0  0  0  0  0
   -1.5651    0.3327    0.0000 I   0  0  0  0  0  0  0  0  0  0  0  0
  1  2  1  0  0  0  0
  1  3  1  0  0  0  0
  3  4  1  0  0  0  0
  3  5  1  0  0  0  0
  3  6  1  0  0  0  0
  6  7  1  0  0  0  0
  6  8  1  0  0  0  0
  6  9  1  0  0  0  0
  9 10  1  0  0  0  0
  9 11  1  0  0  0  0
  9 12  1  0  0  0  0
 12  1  1  0  0  0  0
 12 13  1  0  0  0  0
 12 14  1  0  0  0  0
  1 15  1  0  0  0  0
M  END
> <ChemID>
103874

> <source_casrn>
1556-18-9

> <CAS>
1556-18-9

> <SMILES>
IC1CCCC1

> <NAME>
Cyclopentane, iodo-

> <preferred_name>
Cyclopentane, iodo-

> <iupac>


> <MPID>
22803

> <dsstox_substance_id>
DTXSID2061775

> <Canonical_QSARr>
IC1CCCC1

> <InChI_Code_QSARr>
InChI=1S/C5H9I/c6-5-3-1-2-4-5/h5H,1-4H2

> <InChI Key_QSARr>
PCEBAZIVZVIQEO-UHFFFAOYSA-N

> <Salt_Solvent>
?

> <BP>
166.5

$$$$
103878
  -INDIGO-08031720192D

 11 10  0  0  0  0  0  0  0  0999 V2000
   -0.6123   -1.4782    0.0000 Cl  0  0  0  0  0  0  0  0  0  0  0  0
    0.0000    0.0000    0.0000 Si  0  0  0  0  0  0  0  0  0  0  0  0
    0.6123   -1.4782    0.0000 Cl  0  0  0  0  0  0  0  0  0  0  0  0
   -1.3856    0.8000    0.0000 C   0  0  0  0  0  0  0  0  0  0  0  0
   -2.7713    1.6000    0.0000 H   0  0  0  0  0  0  0  0  0  0  0  0
   -2.7713    0.0000    0.0000 H   0  0  0  0  0  0  0  0  0  0  0  0
   -1.3856    2.4000    0.0000 H   0  0  0  0  0  0  0  0  0  0  0  0
    1.3856    0.8000    0.0000 C   0  0  0  0  0  0  0  0  0  0  0  0
    2.7713    1.6000    0.0000 H   0  0  0  0  0  0  0  0  0  0  0  0
    2.7713    0.0000    0.0000 Cl  0  0  0  0  0  0  0  0  0  0  0  0
    1.3856    2.4000    0.0000 Cl  0  0  0  0  0  0  0  0  0  0  0  0
  1  2  1  0  0  0  0
  2  3  1  0  0  0  0
  2  4  1  0  0  0  0
  4  5  1  0  0  0  0
  4  6  1  0  0  0  0
  4  7  1  0  0  0  0
  2  8  1  0  0  0  0
  8  9  1  0  0  0  0
  8 10  1  0  0  0  0
  8 11  1  0  0  0  0
M  END
> <ChemID>
103878

> <source_casrn>
1558-31-2

> <CAS>
1558-31-2

> <SMILES>
C[Si](Cl)(Cl)C(Cl)Cl

> <NAME>
Silane, dichloro(dichloromethyl)methyl-

> <preferred_name>
Silane, dichloro(dichloromethyl)methyl-

> <iupac>
dichloro-(dichloromethyl)-methylsilane

> <MPID>
22807

> <dsstox_substance_id>
DTXSID1061780

> <Canonical_QSARr>
C[Si](Cl)(Cl)C(Cl)Cl

> <InChI_Code_QSARr>
InChI=1S/C2H4Cl4Si/c1-7(5,6)2(3)4/h2H,1H3

> <InChI Key_QSARr>
XMNYHTVOHRUIEH-UHFFFAOYSA-N

> <Salt_Solvent>
?

> <BP>
149.0

$$$$
103882
  -INDIGO-08031720192D

 25 26  0  0  0  0  0  0  0  0999 V2000
   -1.6001    0.0000    0.0000 C   0  0  0  0  0  0  0  0  0  0  0  0
   -2.3999    1.3856    0.0000 C   0  0  0  0  0  0  0  0  0  0  0  0
   -1.6001    2.7713    0.0000 H   0  0  0  0  0  0  0  0  0  0  0  0
   -4.0000    1.3856    0.0000 C   0  0  0  0  0  0  0  0  0  0  0  0
   -4.8000    2.7713    0.0000 H   0  0  0  0  0  0  0  0  0  0  0  0
   -4.8000    0.0000    0.0000 C   0  0  0  0  0  0  0  0  0  0  0  0
   -6.4000    0.0000    0.0000 H   0  0  0  0  0  0  0  0  0  0  0  0
   -4.0000   -1.3856    0.0000 C   0  0  0  0  0  0  0  0  0  0  0  0
   -4.8000   -2.7713    0.0000 H   0  0  0  0  0  0  0  0  0  0  0  0
   -2.3999   -1.3856    0.0000 C   0  0  0  0  0  0  0  0  0  0  0  0
   -1.6001   -2.7713    0.0000 C   0  0  0  0  0  0  0  0  0  0  0  0
   -3.1035   -3.3185    0.0000 H   0  0  0  0  0  0  0  0  0  0  0  0
   -1.3222   -4.3470    0.0000 H   0  0  0  0  0  0  0  0  0  0  0  0
   -0.0000   -2.7713    0.0000 C   0  0  0  0  0  0  0  0  0  0  0  0
   -0.2778   -4.3470    0.0000 H   0  0  0  0  0  0  0  0  0  0  0  0
    1.5035   -3.3185    0.0000 H   0  0  0  0  0  0  0  0  0  0  0  0
    0.8000   -1.3856    0.0000 C   0  0  0  0  0  0  0  0  0  0  0  0
    2.0257   -2.4141    0.0000 H   0  0  0  0  0  0  0  0  0  0  0  0
    2.0257   -0.3572    0.0000 H   0  0  0  0  0  0  0  0  0  0  0  0
   -0.0000    0.0000    0.0000 C   0  0  0  0  0  0  0  0  0  0  0  0
   -0.2778    1.5757    0.0000 H   0  0  0  0  0  0  0  0  0  0  0  0
    1.2257    1.0285    0.0000 C   0  0  0  0  0  0  0  0  0  0  0  0
    2.4514    2.0569    0.0000 H   0  0  0  0  0  0  0  0  0  0  0  0
    0.9478    2.6041    0.0000 H   0  0  0  0  0  0  0  0  0  0  0  0
    2.7292    0.4812    0.0000 H   0  0  0  0  0  0  0  0  0  0  0  0
  1  2  1  0  0  0  0
  2  3  1  0  0  0  0
  2  4  2  0  0  0  0
  4  5  1  0  0  0  0
  4  6  1  0  0  0  0
  6  7  1  0  0  0  0
  6  8  2  0  0  0  0
  8  9  1  0  0  0  0
  8 10  1  0  0  0  0
 10  1  2  0  0  0  0
 10 11  1  0  0  0  0
 11 12  1  0  0  0  0
 11 13  1  0  0  0  0
 11 14  1  0  0  0  0
 14 15  1  0  0  0  0
 14 16  1  0  0  0  0
 14 17  1  0  0  0  0
 17 18  1  0  0  0  0
 17 19  1  0  0  0  0
 17 20  1  0  0  0  0
 20  1  1  0  0  0  0
 20 21  1  0  0  0  0
 20 22  1  0  0  0  0
 22 23  1  0  0  0  0
 22 24  1  0  0  0  0
 22 25  1  0  0  0  0
M  END
> <ChemID>
103882

> <source_casrn>
1559-81-5

> <CAS>
NOCAS_870887

> <SMILES>
CC1CCCc2ccccc21

> <NAME>
NAPHTHALENE, 1,2,3,4-TETRAHYDRO-1-METHYL-

> <preferred_name>


> <iupac>


> <MPID>
22811

> <dsstox_substance_id>
DTXSID60870887

> <Canonical_QSARr>
CC1CCCc2ccccc21

> <InChI_Code_QSARr>
InChI=1S/C11H14/c1-9-5-4-7-10-6-2-3-8-11(9)10/h2-3,6,8-9H,4-5,7H2,1H3

> <InChI Key_QSARr>
APBBTKKLSNPFDP-UHFFFAOYSA-N

> <Salt_Solvent>
?

> <BP>
220.6

$$$$
103886
  -INDIGO-08031720192D

 20 19  0  0  0  0  0  0  0  0999 V2000
   -2.4000   -1.3856    0.0000 O   0  0  0  0  0  0  0  0  0  0  0  0
   -0.8000   -1.3856    0.0000 C   0  0  0  0  0  0  0  0  0  0  0  0
    0.0001    0.0000    0.0000 N   0  0  0  0  0  0  0  0  0  0  0  0
    1.6001    0.0000    0.0000 C   0  0  0  0  0  0  0  0  0  0  0  0
    2.8694   -0.9740    0.0000 H   0  0  0  0  0  0  0  0  0  0  0  0
    1.8088   -1.5863    0.0000 H   0  0  0  0  0  0  0  0  0  0  0  0
    2.4000    1.3856    0.0000 C   0  0  0  0  0  0  0  0  0  0  0  0
    4.0000    1.3856    0.0000 H   0  0  0  0  0  0  0  0  0  0  0  0
    3.2001    2.7713    0.0000 H   0  0  0  0  0  0  0  0  0  0  0  0
    3.2001    0.0000    0.0000 H   0  0  0  0  0  0  0  0  0  0  0  0
   -0.8000    1.3856    0.0000 C   0  0  0  0  0  0  0  0  0  0  0  0
   -0.0001    2.7713    0.0000 O   0  0  0  0  0  0  0  0  0  0  0  0
   -2.4000    1.3856    0.0000 C   0  0  0  0  0  0  0  0  0  0  0  0
   -4.0000    1.3856    0.0000 H   0  0  0  0  0  0  0  0  0  0  0  0
   -3.2001    2.7713    0.0000 H   0  0  0  0  0  0  0  0  0  0  0  0
   -3.2001    0.0000    0.0000 H   0  0  0  0  0  0  0  0  0  0  0  0
    0.0001   -2.7713    0.0000 C   0  0  0  0  0  0  0  0  0  0  0  0
    0.8000   -4.1569    0.0000 H   0  0  0  0  0  0  0  0  0  0  0  0
   -0.8000   -4.1569    0.0000 H   0  0  0  0  0  0  0  0  0  0  0  0
    1.6001   -2.7713    0.0000 H   0  0  0  0  0  0  0  0  0  0  0  0
  1  2  2  0  0  0  0
  2  3  1  0  0  0  0
  3  4  1  0  0  0  0
  4  5  1  0  0  0  0
  4  6  1  0  0  0  0
  4  7  1  0  0  0  0
  7  8  1  0  0  0  0
  7  9  1  0  0  0  0
  7 10  1  0  0  0  0
  3 11  1  0  0  0  0
 11 12  2  0  0  0  0
 11 13  1  0  0  0  0
 13 14  1  0  0  0  0
 13 15  1  0  0  0  0
 13 16  1  0  0  0  0
  2 17  1  0  0  0  0
 17 18  1  0  0  0  0
 17 19  1  0  0  0  0
 17 20  1  0  0  0  0
M  END
> <ChemID>
103886

> <source_casrn>
1563-83-3

> <CAS>
1563-83-3

> <SMILES>
CCN(C(C)=O)C(C)=O

> <NAME>
N-Acetyl-N-ethyl-acetamide

> <preferred_name>
N-Acetyl-N-ethylacetamide

> <iupac>
N-Acetyl-N-ethylacetamide

> <MPID>
22815

> <dsstox_substance_id>
DTXSID20166071

> <Canonical_QSARr>
CCN(C(C)=O)C(C)=O

> <InChI_Code_QSARr>
InChI=1S/C6H11NO2/c1-4-7(5(2)8)6(3)9/h4H2,1-3H3

> <InChI Key_QSARr>
OUUWATVJTLBCFV-UHFFFAOYSA-N

> <Salt_Solvent>
?

> <BP>
197.0

$$$$
103890
  -INDIGO-08031720192D

 25 24  0  0  0  0  0  0  0  0999 V2000
    2.7713    1.6000    0.0000 C   0  0  0  0  0  0  0  0  0  0  0  0
    4.1569    2.4000    0.0000 H   0  0  0  0  0  0  0  0  0  0  0  0
    4.1569    0.8000    0.0000 H   0  0  0  0  0  0  0  0  0  0  0  0
    2.7713    3.2000    0.0000 H   0  0  0  0  0  0  0  0  0  0  0  0
    1.3856    0.8000    0.0000 C   0  0  0  0  0  0  0  0  0  0  0  0
    0.5857    2.1856    0.0000 H   0  0  0  0  0  0  0  0  0  0  0  0
   -0.0001   -0.0000    0.0000 C   0  0  0  0  0  0  0  0  0  0  0  0
    0.6123   -1.4782    0.0000 H   0  0  0  0  0  0  0  0  0  0  0  0
   -0.6122   -1.4782    0.0000 H   0  0  0  0  0  0  0  0  0  0  0  0
   -1.3856    0.8000    0.0000 C   0  0  0  0  0  0  0  0  0  0  0  0
   -1.9979    2.2782    0.0000 H   0  0  0  0  0  0  0  0  0  0  0  0
   -0.7734    2.2782    0.0000 H   0  0  0  0  0  0  0  0  0  0  0  0
   -2.7712   -0.0000    0.0000 C   0  0  0  0  0  0  0  0  0  0  0  0
   -2.7712   -1.6000    0.0000 H   0  0  0  0  0  0  0  0  0  0  0  0
   -4.1569    0.8000    0.0000 C   0  0  0  0  0  0  0  0  0  0  0  0
   -5.5425   -0.0000    0.0000 C   0  0  0  0  0  0  0  0  0  0  0  0
   -6.9282   -0.8000    0.0000 H   0  0  0  0  0  0  0  0  0  0  0  0
   -6.9282    0.8000    0.0000 H   0  0  0  0  0  0  0  0  0  0  0  0
   -5.5425   -1.6000    0.0000 H   0  0  0  0  0  0  0  0  0  0  0  0
   -4.1569    2.4000    0.0000 C   0  0  0  0  0  0  0  0  0  0  0  0
   -4.1569    4.0000    0.0000 H   0  0  0  0  0  0  0  0  0  0  0  0
   -5.5425    3.2000    0.0000 H   0  0  0  0  0  0  0  0  0  0  0  0
   -2.7712    3.2000    0.0000 H   0  0  0  0  0  0  0  0  0  0  0  0
    2.1857   -0.5856    0.0000 O   0  0  0  0  0  0  0  0  0  0  0  0
    3.7856   -0.5856    0.0000 H   0  0  0  0  0  0  0  0  0  0  0  0
  1  2  1  0  0  0  0
  1  3  1  0  0  0  0
  1  4  1  0  0  0  0
  1  5  1  0  0  0  0
  5  6  1  0  0  0  0
  5  7  1  0  0  0  0
  7  8  1  0  0  0  0
  7  9  1  0  0  0  0
  7 10  1  0  0  0  0
 10 11  1  0  0  0  0
 10 12  1  0  0  0  0
 10 13  1  0  0  0  0
 13 14  1  0  0  0  0
 13 15  2  0  0  0  0
 15 16  1  0  0  0  0
 16 17  1  0  0  0  0
 16 18  1  0  0  0  0
 16 19  1  0  0  0  0
 15 20  1  0  0  0  0
 20 21  1  0  0  0  0
 20 22  1  0  0  0  0
 20 23  1  0  0  0  0
  5 24  1  0  0  0  0
 24 25  1  0  0  0  0
M  END
> <ChemID>
103890

> <source_casrn>
1569-60-4

> <CAS>
1569-60-4

> <SMILES>
CC(O)CCC=C(C)C

> <NAME>
5-Hepten-2-ol, 6-methyl-

> <preferred_name>
6-Methylhept-5-en-2-ol

> <iupac>
6-methylhept-5-en-2-ol

> <MPID>
22819

> <dsstox_substance_id>
DTXSID8051754

> <Canonical_QSARr>
CC(O)CCC=C(C)C

> <InChI_Code_QSARr>
InChI=1S/C8H16O/c1-7(2)5-4-6-8(3)9/h5,8-9H,4,6H2,1-3H3

> <InChI Key_QSARr>
OHEFFKYYKJVVOX-UHFFFAOYSA-N

> <Salt_Solvent>
?

> <BP>
175.0

$$$$
103894
  -INDIGO-08031720192D

 30 29  0  0  0  0  0  0  0  0999 V2000
    2.7713    0.0000    0.0000 C   0  0  0  0  0  0  0  0  0  0  0  0
    4.1569   -0.8000    0.0000 H   0  0  0  0  0  0  0  0  0  0  0  0
    4.1569    0.8000    0.0000 H   0  0  0  0  0  0  0  0  0  0  0  0
    2.7713   -1.6000    0.0000 H   0  0  0  0  0  0  0  0  0  0  0  0
    1.3857   -0.8000    0.0000 C   0  0  0  0  0  0  0  0  0  0  0  0
    0.7733   -2.2782    0.0000 H   0  0  0  0  0  0  0  0  0  0  0  0
    1.9979   -2.2782    0.0000 H   0  0  0  0  0  0  0  0  0  0  0  0
    0.0001    0.0000    0.0000 C   0  0  0  0  0  0  0  0  0  0  0  0
   -1.3856    0.8000    0.0000 C   0  0  0  0  0  0  0  0  0  0  0  0
   -0.7734    2.2782    0.0000 H   0  0  0  0  0  0  0  0  0  0  0  0
   -1.9979    2.2782    0.0000 H   0  0  0  0  0  0  0  0  0  0  0  0
   -2.7714    0.0000    0.0000 C   0  0  0  0  0  0  0  0  0  0  0  0
   -3.3835   -1.4782    0.0000 H   0  0  0  0  0  0  0  0  0  0  0  0
   -2.1590   -1.4782    0.0000 H   0  0  0  0  0  0  0  0  0  0  0  0
   -4.1570    0.8000    0.0000 C   0  0  0  0  0  0  0  0  0  0  0  0
   -3.1284    2.0256    0.0000 H   0  0  0  0  0  0  0  0  0  0  0  0
   -5.3825    1.8285    0.0000 C   0  0  0  0  0  0  0  0  0  0  0  0
   -6.6082    2.8569    0.0000 H   0  0  0  0  0  0  0  0  0  0  0  0
   -6.8861    1.2812    0.0000 H   0  0  0  0  0  0  0  0  0  0  0  0
   -5.1048    3.4042    0.0000 H   0  0  0  0  0  0  0  0  0  0  0  0
   -5.1854   -0.4257    0.0000 C   0  0  0  0  0  0  0  0  0  0  0  0
   -6.2138   -1.6513    0.0000 H   0  0  0  0  0  0  0  0  0  0  0  0
   -4.6381   -1.9291    0.0000 H   0  0  0  0  0  0  0  0  0  0  0  0
   -6.7611   -0.1478    0.0000 H   0  0  0  0  0  0  0  0  0  0  0  0
   -0.8000   -1.3856    0.0000 O   0  0  0  0  0  0  0  0  0  0  0  0
   -0.2527   -2.8891    0.0000 H   0  0  0  0  0  0  0  0  0  0  0  0
    0.8000    1.3856    0.0000 C   0  0  0  0  0  0  0  0  0  0  0  0
    1.6000    2.7713    0.0000 H   0  0  0  0  0  0  0  0  0  0  0  0
    0.2528    2.8891    0.0000 H   0  0  0  0  0  0  0  0  0  0  0  0
    2.4001    1.3856    0.0000 H   0  0  0  0  0  0  0  0  0  0  0  0
  1  2  1  0  0  0  0
  1  3  1  0  0  0  0
  1  4  1  0  0  0  0
  1  5  1  0  0  0  0
  5  6  1  0  0  0  0
  5  7  1  0  0  0  0
  5  8  1  0  0  0  0
  8  9  1  0  0  0  0
  9 10  1  0  0  0  0
  9 11  1  0  0  0  0
  9 12  1  0  0  0  0
 12 13  1  0  0  0  0
 12 14  1  0  0  0  0
 12 15  1  0  0  0  0
 15 16  1  0  0  0  0
 15 17  1  0  0  0  0
 17 18  1  0  0  0  0
 17 19  1  0  0  0  0
 17 20  1  0  0  0  0
 15 21  1  0  0  0  0
 21 22  1  0  0  0  0
 21 23  1  0  0  0  0
 21 24  1  0  0  0  0
  8 25  1  0  0  0  0
 25 26  1  0  0  0  0
  8 27  1  0  0  0  0
 27 28  1  0  0  0  0
 27 29  1  0  0  0  0
 27 30  1  0  0  0  0
M  END
> <ChemID>
103894

> <source_casrn>
1573-28-0

> <CAS>
NOCAS_870890

> <SMILES>
CCC(C)(O)CCC(C)C

> <NAME>
3-HEPTANOL, 3,6-DIMETHYL-

> <preferred_name>


> <iupac>


> <MPID>
22823

> <dsstox_substance_id>
DTXSID90870890

> <Canonical_QSARr>
CCC(C)(O)CCC(C)C

> <InChI_Code_QSARr>
InChI=1S/C9H20O/c1-5-9(4,10)7-6-8(2)3/h8,10H,5-7H2,1-4H3

> <InChI Key_QSARr>
HVPGGLNDHUWMLS-UHFFFAOYSA-N

> <Salt_Solvent>
?

> <BP>
173.0

$$$$
103900
  -INDIGO-08031720192D

 18 17  0  0  0  0  0  0  0  0999 V2000
    4.1569    0.8000    0.0000 O   0  0  0  0  0  0  0  0  0  0  0  0
    5.5426    0.0000    0.0000 H   0  0  0  0  0  0  0  0  0  0  0  0
    2.7712    0.0000    0.0000 C   0  0  0  0  0  0  0  0  0  0  0  0
    2.7712   -1.6000    0.0000 O   0  0  0  0  0  0  0  0  0  0  0  0
    1.3856    0.8000    0.0000 C   0  0  0  0  0  0  0  0  0  0  0  0
    1.9979    2.2782    0.0000 H   0  0  0  0  0  0  0  0  0  0  0  0
    0.7734    2.2782    0.0000 H   0  0  0  0  0  0  0  0  0  0  0  0
    0.0001    0.0000    0.0000 C   0  0  0  0  0  0  0  0  0  0  0  0
   -0.6122   -1.4782    0.0000 H   0  0  0  0  0  0  0  0  0  0  0  0
    0.6122   -1.4782    0.0000 H   0  0  0  0  0  0  0  0  0  0  0  0
   -1.3856    0.8000    0.0000 C   0  0  0  0  0  0  0  0  0  0  0  0
   -0.7734    2.2782    0.0000 H   0  0  0  0  0  0  0  0  0  0  0  0
   -1.9979    2.2782    0.0000 H   0  0  0  0  0  0  0  0  0  0  0  0
   -2.7712    0.0000    0.0000 C   0  0  0  0  0  0  0  0  0  0  0  0
   -2.7712   -1.6000    0.0000 H   0  0  0  0  0  0  0  0  0  0  0  0
   -4.1569    0.8000    0.0000 C   0  0  0  0  0  0  0  0  0  0  0  0
   -5.5426    0.0000    0.0000 H   0  0  0  0  0  0  0  0  0  0  0  0
   -4.1569    2.4000    0.0000 H   0  0  0  0  0  0  0  0  0  0  0  0
  1  2  1  0  0  0  0
  1  3  1  0  0  0  0
  3  4  2  0  0  0  0
  3  5  1  0  0  0  0
  5  6  1  0  0  0  0
  5  7  1  0  0  0  0
  5  8  1  0  0  0  0
  8  9  1  0  0  0  0
  8 10  1  0  0  0  0
  8 11  1  0  0  0  0
 11 12  1  0  0  0  0
 11 13  1  0  0  0  0
 11 14  1  0  0  0  0
 14 15  1  0  0  0  0
 14 16  2  0  0  0  0
 16 17  1  0  0  0  0
 16 18  1  0  0  0  0
M  END
> <ChemID>
103900

> <source_casrn>
1577-22-6

> <CAS>
1577-22-6

> <SMILES>
C=CCCCC(O)=O

> <NAME>
5-Hexenoic acid

> <preferred_name>
5-Hexenoic acid

> <iupac>


> <MPID>
22829

> <dsstox_substance_id>
DTXSID30166305

> <Canonical_QSARr>
C=CCCCC(O)=O

> <InChI_Code_QSARr>
InChI=1S/C6H10O2/c1-2-3-4-5-6(7)8/h2H,1,3-5H2,(H,7,8)

> <InChI Key_QSARr>
XUDOZULIAWNMIU-UHFFFAOYSA-N

> <Salt_Solvent>
?

> <BP>
203.0

$$$$
103904
  -INDIGO-08031720192D

 22 22  0  0  0  0  0  0  0  0999 V2000
   -0.0001    0.0000    0.0000 C   0  0  0  0  0  0  0  0  0  0  0  0
   -0.8000    1.3856    0.0000 C   0  0  0  0  0  0  0  0  0  0  0  0
   -0.0001    2.7713    0.0000 C   0  0  0  0  0  0  0  0  0  0  0  0
    0.8000    4.1569    0.0000 H   0  0  0  0  0  0  0  0  0  0  0  0
   -0.8000    4.1569    0.0000 H   0  0  0  0  0  0  0  0  0  0  0  0
    1.6000    2.7713    0.0000 H   0  0  0  0  0  0  0  0  0  0  0  0
   -2.4000    1.3856    0.0000 C   0  0  0  0  0  0  0  0  0  0  0  0
   -3.2001    2.7713    0.0000 H   0  0  0  0  0  0  0  0  0  0  0  0
   -3.2001    0.0000    0.0000 C   0  0  0  0  0  0  0  0  0  0  0  0
   -4.8000    0.0000    0.0000 H   0  0  0  0  0  0  0  0  0  0  0  0
   -2.4000   -1.3856    0.0000 C   0  0  0  0  0  0  0  0  0  0  0  0
   -3.2001   -2.7713    0.0000 H   0  0  0  0  0  0  0  0  0  0  0  0
   -0.8000   -1.3856    0.0000 C   0  0  0  0  0  0  0  0  0  0  0  0
    0.0001   -2.7713    0.0000 H   0  0  0  0  0  0  0  0  0  0  0  0
    1.6000    0.0000    0.0000 C   0  0  0  0  0  0  0  0  0  0  0  0
    1.8089    1.5863    0.0000 H   0  0  0  0  0  0  0  0  0  0  0  0
    2.8693    0.9740    0.0000 H   0  0  0  0  0  0  0  0  0  0  0  0
    2.4000   -1.3856    0.0000 C   0  0  0  0  0  0  0  0  0  0  0  0
    1.6000   -2.7713    0.0000 H   0  0  0  0  0  0  0  0  0  0  0  0
    4.0000   -1.3856    0.0000 C   0  0  0  0  0  0  0  0  0  0  0  0
    4.8000   -2.7713    0.0000 H   0  0  0  0  0  0  0  0  0  0  0  0
    4.8000    0.0000    0.0000 H   0  0  0  0  0  0  0  0  0  0  0  0
  1  2  1  0  0  0  0
  2  3  1  0  0  0  0
  3  4  1  0  0  0  0
  3  5  1  0  0  0  0
  3  6  1  0  0  0  0
  2  7  2  0  0  0  0
  7  8  1  0  0  0  0
  7  9  1  0  0  0  0
  9 10  1  0  0  0  0
  9 11  2  0  0  0  0
 11 12  1  0  0  0  0
 11 13  1  0  0  0  0
 13  1  2  0  0  0  0
 13 14  1  0  0  0  0
  1 15  1  0  0  0  0
 15 16  1  0  0  0  0
 15 17  1  0  0  0  0
 15 18  1  0  0  0  0
 18 19  1  0  0  0  0
 18 20  2  0  0  0  0
 20 21  1  0  0  0  0
 20 22  1  0  0  0  0
M  END
> <ChemID>
103904

> <source_casrn>
1587-04-8

> <CAS>
1587-04-8

> <SMILES>
Cc1ccccc1CC=C

> <NAME>
BENZENE, 1-METHYL-2-(2-PROPENYL)-

> <preferred_name>
Benzene, 1-methyl-2-(2-propen-1-yl)-

> <iupac>
1-methyl-2-prop-2-enylbenzene

> <MPID>
22833

> <dsstox_substance_id>
DTXSID4074697

> <Canonical_QSARr>
Cc1ccccc1CC=C

> <InChI_Code_QSARr>
InChI=1S/C10H12/c1-3-6-10-8-5-4-7-9(10)2/h3-5,7-8H,1,6H2,2H3

> <InChI Key_QSARr>
SVIHJJUMPAUQNO-UHFFFAOYSA-N

> <Salt_Solvent>
?

> <BP>
182.5

$$$$
103908
  -INDIGO-08031720192D

 22 23  0  0  0  0  0  0  0  0999 V2000
   -0.0001    0.0000    0.0000 C   0  0  0  0  0  0  0  0  0  0  0  0
    1.6001   -0.0000    0.0000 C   0  0  0  0  0  0  0  0  0  0  0  0
    2.4001   -1.3856    0.0000 C   0  0  0  0  0  0  0  0  0  0  0  0
    1.6001   -2.7713    0.0000 H   0  0  0  0  0  0  0  0  0  0  0  0
    4.0000   -1.3856    0.0000 C   0  0  0  0  0  0  0  0  0  0  0  0
    4.8000   -2.7713    0.0000 H   0  0  0  0  0  0  0  0  0  0  0  0
    4.8000    0.0000    0.0000 C   0  0  0  0  0  0  0  0  0  0  0  0
    6.4000    0.0000    0.0000 H   0  0  0  0  0  0  0  0  0  0  0  0
    4.0000    1.3856    0.0000 C   0  0  0  0  0  0  0  0  0  0  0  0
    4.8000    2.7713    0.0000 H   0  0  0  0  0  0  0  0  0  0  0  0
    2.4001    1.3856    0.0000 C   0  0  0  0  0  0  0  0  0  0  0  0
    1.6001    2.7713    0.0000 H   0  0  0  0  0  0  0  0  0  0  0  0
   -0.8001    1.3856    0.0000 C   0  0  0  0  0  0  0  0  0  0  0  0
   -0.0001    2.7713    0.0000 H   0  0  0  0  0  0  0  0  0  0  0  0
   -2.4000    1.3856    0.0000 C   0  0  0  0  0  0  0  0  0  0  0  0
   -3.2000    2.7713    0.0000 H   0  0  0  0  0  0  0  0  0  0  0  0
   -3.2000    0.0000    0.0000 C   0  0  0  0  0  0  0  0  0  0  0  0
   -4.8000   -0.0000    0.0000 I   0  0  0  0  0  0  0  0  0  0  0  0
   -2.4000   -1.3856    0.0000 C   0  0  0  0  0  0  0  0  0  0  0  0
   -3.2000   -2.7713    0.0000 H   0  0  0  0  0  0  0  0  0  0  0  0
   -0.8001   -1.3856    0.0000 C   0  0  0  0  0  0  0  0  0  0  0  0
   -0.0001   -2.7713    0.0000 H   0  0  0  0  0  0  0  0  0  0  0  0
  1  2  1  0  0  0  0
  2  3  1  0  0  0  0
  3  4  1  0  0  0  0
  3  5  2  0  0  0  0
  5  6  1  0  0  0  0
  5  7  1  0  0  0  0
  7  8  1  0  0  0  0
  7  9  2  0  0  0  0
  9 10  1  0  0  0  0
  9 11  1  0  0  0  0
 11  2  2  0  0  0  0
 11 12  1  0  0  0  0
  1 13  1  0  0  0  0
 13 14  1  0  0  0  0
 13 15  2  0  0  0  0
 15 16  1  0  0  0  0
 15 17  1  0  0  0  0
 17 18  1  0  0  0  0
 17 19  2  0  0  0  0
 19 20  1  0  0  0  0
 19 21  1  0  0  0  0
 21  1  2  0  0  0  0
 21 22  1  0  0  0  0
M  END
> <ChemID>
103908

> <source_casrn>
1591-31-7

> <CAS>
1591-31-7

> <SMILES>
Ic1ccc(cc1)-c1ccccc1

> <NAME>
1,1'-Biphenyl, 4-iodo-

> <preferred_name>
1,1'-Biphenyl, 4-iodo-

> <iupac>
1-iodo-4-phenylbenzene

> <MPID>
22837

> <dsstox_substance_id>
DTXSID7061807

> <Canonical_QSARr>
Ic1ccc(cc1)-c1ccccc1

> <InChI_Code_QSARr>
InChI=1S/C12H9I/c13-12-8-6-11(7-9-12)10-4-2-1-3-5-10/h1-9H

> <InChI Key_QSARr>
NXYICUMSYKIABQ-UHFFFAOYSA-N

> <Salt_Solvent>
?

> <BP>
320.0

$$$$
103912
  -INDIGO-08031720192D

 14 14  0  0  0  0  0  0  0  0999 V2000
    2.0944    1.5217    0.0000 S   0  0  0  0  0  0  0  0  0  0  0  0
    2.5889    0.0000    0.0000 C   0  0  0  0  0  0  0  0  0  0  0  0
    4.0505    0.6508    0.0000 H   0  0  0  0  0  0  0  0  0  0  0  0
    3.3888   -1.3856    0.0000 H   0  0  0  0  0  0  0  0  0  0  0  0
    1.2944   -0.9405    0.0000 C   0  0  0  0  0  0  0  0  0  0  0  0
    2.3650   -2.1295    0.0000 H   0  0  0  0  0  0  0  0  0  0  0  0
    0.2238   -2.1295    0.0000 H   0  0  0  0  0  0  0  0  0  0  0  0
    0.0000    0.0000    0.0000 C   0  0  0  0  0  0  0  0  0  0  0  0
   -0.8000   -1.3856    0.0000 H   0  0  0  0  0  0  0  0  0  0  0  0
   -1.4617    0.6508    0.0000 H   0  0  0  0  0  0  0  0  0  0  0  0
    0.4944    1.5217    0.0000 C   0  0  0  0  0  0  0  0  0  0  0  0
   -1.0706    1.8544    0.0000 H   0  0  0  0  0  0  0  0  0  0  0  0
    0.6617    3.1129    0.0000 H   0  0  0  0  0  0  0  0  0  0  0  0
    3.0349    2.8161    0.0000 O   0  0  0  0  0  0  0  0  0  0  0  0
  1  2  1  0  0  0  0
  2  3  1  0  0  0  0
  2  4  1  0  0  0  0
  2  5  1  0  0  0  0
  5  6  1  0  0  0  0
  5  7  1  0  0  0  0
  5  8  1  0  0  0  0
  8  9  1  0  0  0  0
  8 10  1  0  0  0  0
  8 11  1  0  0  0  0
 11  1  1  0  0  0  0
 11 12  1  0  0  0  0
 11 13  1  0  0  0  0
  1 14  2  0  0  0  0
M  END
> <ChemID>
103912

> <source_casrn>
1600-44-8

> <CAS>
1600-44-8

> <SMILES>
O=S1CCCC1

> <NAME>
Tetramethylene sulfoxide

> <preferred_name>
Thiophene, tetrahydro-, 1-oxide

> <iupac>
Thiolane 1-oxide

> <MPID>
22841

> <dsstox_substance_id>
DTXSID6061814

> <Canonical_QSARr>
O=S1CCCC1

> <InChI_Code_QSARr>
InChI=1S/C4H8OS/c5-6-3-1-2-4-6/h1-4H2

> <InChI Key_QSARr>
ISXOBTBCNRIIQO-UHFFFAOYSA-N

> <Salt_Solvent>
?

> <BP>
236.0

$$$$
103916
  -INDIGO-08031720192D

 23 22  0  0  0  0  0  0  0  0999 V2000
   -2.7712    0.0000    0.0000 O   0  0  0  0  0  0  0  0  0  0  0  0
   -1.3856   -0.8000    0.0000 C   0  0  0  0  0  0  0  0  0  0  0  0
   -1.3856   -2.4000    0.0000 O   0  0  0  0  0  0  0  0  0  0  0  0
   -0.0001    0.0000    0.0000 C   0  0  0  0  0  0  0  0  0  0  0  0
    1.3856    0.8000    0.0000 H   0  0  0  0  0  0  0  0  0  0  0  0
    1.0284   -1.2256    0.0000 C   0  0  0  0  0  0  0  0  0  0  0  0
   -0.0526   -2.4053    0.0000 H   0  0  0  0  0  0  0  0  0  0  0  0
    1.0982   -2.8242    0.0000 H   0  0  0  0  0  0  0  0  0  0  0  0
    2.6042   -0.9478    0.0000 C   0  0  0  0  0  0  0  0  0  0  0  0
    3.6325   -2.1735    0.0000 O   0  0  0  0  0  0  0  0  0  0  0  0
    5.2084   -1.8957    0.0000 C   0  0  0  0  0  0  0  0  0  0  0  0
    6.7840   -1.6179    0.0000 H   0  0  0  0  0  0  0  0  0  0  0  0
    6.2368   -3.1213    0.0000 H   0  0  0  0  0  0  0  0  0  0  0  0
    5.7555   -0.3921    0.0000 H   0  0  0  0  0  0  0  0  0  0  0  0
    3.1514    0.5557    0.0000 O   0  0  0  0  0  0  0  0  0  0  0  0
   -0.8000    1.3857    0.0000 C   0  0  0  0  0  0  0  0  0  0  0  0
   -1.6000    2.7713    0.0000 H   0  0  0  0  0  0  0  0  0  0  0  0
   -0.0001    2.7713    0.0000 H   0  0  0  0  0  0  0  0  0  0  0  0
   -2.3999    1.3857    0.0000 H   0  0  0  0  0  0  0  0  0  0  0  0
   -4.1569   -0.8000    0.0000 C   0  0  0  0  0  0  0  0  0  0  0  0
   -5.5426   -1.6000    0.0000 H   0  0  0  0  0  0  0  0  0  0  0  0
   -5.5426    0.0000    0.0000 H   0  0  0  0  0  0  0  0  0  0  0  0
   -4.1569   -2.4000    0.0000 H   0  0  0  0  0  0  0  0  0  0  0  0
  1  2  1  0  0  0  0
  2  3  2  0  0  0  0
  2  4  1  0  0  0  0
  4  5  1  0  0  0  0
  4  6  1  0  0  0  0
  6  7  1  0  0  0  0
  6  8  1  0  0  0  0
  6  9  1  0  0  0  0
  9 10  1  0  0  0  0
 10 11  1  0  0  0  0
 11 12  1  0  0  0  0
 11 13  1  0  0  0  0
 11 14  1  0  0  0  0
  9 15  2  0  0  0  0
  4 16  1  0  0  0  0
 16 17  1  0  0  0  0
 16 18  1  0  0  0  0
 16 19  1  0  0  0  0
  1 20  1  0  0  0  0
 20 21  1  0  0  0  0
 20 22  1  0  0  0  0
 20 23  1  0  0  0  0
M  END
> <ChemID>
103916

> <source_casrn>
1604-11-1

> <CAS>
22644-27-5

> <SMILES>
COC(=O)C[C@@H](C)C(=O)OC

> <NAME>
Butanedioic acid, methyl-, dimethyl ester

> <preferred_name>
Dimethyl (R)-(+)-methylsuccinate

> <iupac>
C7H12O4

> <MPID>
22845

> <dsstox_substance_id>
DTXSID80431434

> <Canonical_QSARr>
COC(=O)CC(C)C(=O)OC

> <InChI_Code_QSARr>
InChI=1S/C7H12O4/c1-5(7(9)11-3)4-6(8)10-2/h5H,4H2,1-3H3

> <InChI Key_QSARr>
NFOQJNGQQXICBY-UHFFFAOYSA-N

> <Salt_Solvent>
?

> <BP>
196.0

$$$$
103920
  -INDIGO-08031720192D

 21 20  0  0  0  0  0  0  0  0999 V2000
   -2.7713    0.0000    0.0000 S   0  0  0  0  0  0  0  0  0  0  0  0
   -1.3856   -0.8000    0.0000 C   0  0  0  0  0  0  0  0  0  0  0  0
   -0.7733   -2.2782    0.0000 H   0  0  0  0  0  0  0  0  0  0  0  0
   -1.9979   -2.2782    0.0000 H   0  0  0  0  0  0  0  0  0  0  0  0
    0.0000    0.0000    0.0000 C   0  0  0  0  0  0  0  0  0  0  0  0
    0.8000   -1.3857    0.0000 H   0  0  0  0  0  0  0  0  0  0  0  0
    1.3857    0.8000    0.0000 C   0  0  0  0  0  0  0  0  0  0  0  0
    2.7713    1.6000    0.0000 H   0  0  0  0  0  0  0  0  0  0  0  0
    2.7713    0.0000    0.0000 H   0  0  0  0  0  0  0  0  0  0  0  0
    1.3857    2.4000    0.0000 H   0  0  0  0  0  0  0  0  0  0  0  0
   -0.8001    1.3856    0.0000 C   0  0  0  0  0  0  0  0  0  0  0  0
   -1.6000    2.7713    0.0000 H   0  0  0  0  0  0  0  0  0  0  0  0
   -2.4000    1.3856    0.0000 H   0  0  0  0  0  0  0  0  0  0  0  0
    0.0000    2.7713    0.0000 H   0  0  0  0  0  0  0  0  0  0  0  0
   -4.1570   -0.8000    0.0000 C   0  0  0  0  0  0  0  0  0  0  0  0
   -3.5447   -2.2782    0.0000 H   0  0  0  0  0  0  0  0  0  0  0  0
   -4.7693   -2.2782    0.0000 H   0  0  0  0  0  0  0  0  0  0  0  0
   -5.5426    0.0000    0.0000 C   0  0  0  0  0  0  0  0  0  0  0  0
   -6.9282    0.8000    0.0000 H   0  0  0  0  0  0  0  0  0  0  0  0
   -6.9282   -0.8000    0.0000 H   0  0  0  0  0  0  0  0  0  0  0  0
   -5.5426    1.6000    0.0000 H   0  0  0  0  0  0  0  0  0  0  0  0
  1  2  1  0  0  0  0
  2  3  1  0  0  0  0
  2  4  1  0  0  0  0
  2  5  1  0  0  0  0
  5  6  1  0  0  0  0
  5  7  1  0  0  0  0
  7  8  1  0  0  0  0
  7  9  1  0  0  0  0
  7 10  1  0  0  0  0
  5 11  1  0  0  0  0
 11 12  1  0  0  0  0
 11 13  1  0  0  0  0
 11 14  1  0  0  0  0
  1 15  1  0  0  0  0
 15 16  1  0  0  0  0
 15 17  1  0  0  0  0
 15 18  1  0  0  0  0
 18 19  1  0  0  0  0
 18 20  1  0  0  0  0
 18 21  1  0  0  0  0
M  END
> <ChemID>
103920

> <source_casrn>
1613-45-2

> <CAS>
1613-45-2

> <SMILES>
CCSCC(C)C

> <NAME>
PROPANE, 1-(ETHYLTHIO)-2-METHYL-

> <preferred_name>
Ethyl isobutyl sulfide

> <iupac>
C6H14S

> <MPID>
22849

> <dsstox_substance_id>
DTXSID00333926

> <Canonical_QSARr>
CCSCC(C)C

> <InChI_Code_QSARr>
InChI=1S/C6H14S/c1-4-7-5-6(2)3/h6H,4-5H2,1-3H3

> <InChI Key_QSARr>
OIRKGXWQBSPXLQ-UHFFFAOYSA-N

> <Salt_Solvent>
?

> <BP>
134.2

$$$$
103924
  -INDIGO-08031720192D

 18 17  0  0  0  0  0  0  0  0999 V2000
    1.3856    0.8000    0.0000 N   0  0  0  0  0  0  0  0  0  0  0  0
    1.3856    2.4000    0.0000 H   0  0  0  0  0  0  0  0  0  0  0  0
    2.7713    0.0000    0.0000 N   0  0  0  0  0  0  0  0  0  0  0  0
    2.7713   -1.6000    0.0000 H   0  0  0  0  0  0  0  0  0  0  0  0
    4.1570    0.8000    0.0000 C   0  0  0  0  0  0  0  0  0  0  0  0
    3.5447    2.2782    0.0000 H   0  0  0  0  0  0  0  0  0  0  0  0
    4.7693    2.2782    0.0000 H   0  0  0  0  0  0  0  0  0  0  0  0
    5.5426    0.0000    0.0000 C   0  0  0  0  0  0  0  0  0  0  0  0
    6.9282   -0.8000    0.0000 H   0  0  0  0  0  0  0  0  0  0  0  0
    6.9282    0.8000    0.0000 H   0  0  0  0  0  0  0  0  0  0  0  0
    5.5426   -1.6000    0.0000 H   0  0  0  0  0  0  0  0  0  0  0  0
   -0.0000    0.0000    0.0000 C   0  0  0  0  0  0  0  0  0  0  0  0
    0.6123   -1.4782    0.0000 H   0  0  0  0  0  0  0  0  0  0  0  0
   -0.6123   -1.4782    0.0000 H   0  0  0  0  0  0  0  0  0  0  0  0
   -1.3857    0.8000    0.0000 C   0  0  0  0  0  0  0  0  0  0  0  0
   -2.7713    1.6000    0.0000 H   0  0  0  0  0  0  0  0  0  0  0  0
   -2.7713    0.0000    0.0000 H   0  0  0  0  0  0  0  0  0  0  0  0
   -1.3857    2.4000    0.0000 H   0  0  0  0  0  0  0  0  0  0  0  0
  1  2  1  0  0  0  0
  1  3  1  0  0  0  0
  3  4  1  0  0  0  0
  3  5  1  0  0  0  0
  5  6  1  0  0  0  0
  5  7  1  0  0  0  0
  5  8  1  0  0  0  0
  8  9  1  0  0  0  0
  8 10  1  0  0  0  0
  8 11  1  0  0  0  0
  1 12  1  0  0  0  0
 12 13  1  0  0  0  0
 12 14  1  0  0  0  0
 12 15  1  0  0  0  0
 15 16  1  0  0  0  0
 15 17  1  0  0  0  0
 15 18  1  0  0  0  0
M  END
> <ChemID>
103924

> <source_casrn>
1615-80-1

> <CAS>
1615-80-1

> <SMILES>
CCNNCC

> <NAME>
N,N'-DIETHYLHYDRAZINE

> <preferred_name>
1,2-Diethylhydrazine

> <iupac>
1,2-diethylhydrazine

> <MPID>
22853

> <dsstox_substance_id>
DTXSID1043754

> <Canonical_QSARr>
CCNNCC

> <InChI_Code_QSARr>
InChI=1S/C4H12N2/c1-3-5-6-4-2/h5-6H,3-4H2,1-2H3

> <InChI Key_QSARr>
YCBOYOYVDOUXLH-UHFFFAOYSA-N

> <Salt_Solvent>
?

> <BP>
85.5

$$$$
103929
  -INDIGO-08031720192D

 31 30  0  0  0  0  0  0  0  0999 V2000
   -2.6285    1.2257    0.0000 O   0  0  0  0  0  0  0  0  0  0  0  0
   -1.5999    0.0001    0.0000 C   0  0  0  0  0  0  0  0  0  0  0  0
   -2.4000   -1.3856    0.0000 O   0  0  0  0  0  0  0  0  0  0  0  0
   -0.0000    0.0001    0.0000 C   0  0  0  0  0  0  0  0  0  0  0  0
   -0.0000    1.6001    0.0000 C   0  0  0  0  0  0  0  0  0  0  0  0
   -1.5863    1.8088    0.0000 H   0  0  0  0  0  0  0  0  0  0  0  0
   -0.9740    2.8694    0.0000 H   0  0  0  0  0  0  0  0  0  0  0  0
    1.3856    2.4000    0.0000 C   0  0  0  0  0  0  0  0  0  0  0  0
    1.3856    4.0000    0.0000 H   0  0  0  0  0  0  0  0  0  0  0  0
    2.7713    3.2001    0.0000 H   0  0  0  0  0  0  0  0  0  0  0  0
   -0.0000    3.2001    0.0000 H   0  0  0  0  0  0  0  0  0  0  0  0
   -0.0000   -1.5999    0.0000 C   0  0  0  0  0  0  0  0  0  0  0  0
    1.5863   -1.8088    0.0000 H   0  0  0  0  0  0  0  0  0  0  0  0
    0.9741   -2.8694    0.0000 H   0  0  0  0  0  0  0  0  0  0  0  0
   -1.3857   -2.4000    0.0000 C   0  0  0  0  0  0  0  0  0  0  0  0
   -1.3857   -4.0000    0.0000 H   0  0  0  0  0  0  0  0  0  0  0  0
   -2.7713   -3.1999    0.0000 H   0  0  0  0  0  0  0  0  0  0  0  0
   -0.0000   -3.1999    0.0000 H   0  0  0  0  0  0  0  0  0  0  0  0
    1.6000    0.0001    0.0000 C   0  0  0  0  0  0  0  0  0  0  0  0
    2.4001    1.3857    0.0000 O   0  0  0  0  0  0  0  0  0  0  0  0
    2.6284   -1.2257    0.0000 C   0  0  0  0  0  0  0  0  0  0  0  0
    3.6568   -2.4514    0.0000 H   0  0  0  0  0  0  0  0  0  0  0  0
    4.2042   -0.9478    0.0000 H   0  0  0  0  0  0  0  0  0  0  0  0
    2.0813   -2.7292    0.0000 H   0  0  0  0  0  0  0  0  0  0  0  0
   -4.2042    0.9478    0.0000 C   0  0  0  0  0  0  0  0  0  0  0  0
   -4.1343   -0.6506    0.0000 H   0  0  0  0  0  0  0  0  0  0  0  0
   -5.2850   -0.2318    0.0000 H   0  0  0  0  0  0  0  0  0  0  0  0
   -5.2326    2.1736    0.0000 C   0  0  0  0  0  0  0  0  0  0  0  0
   -6.2610    3.3992    0.0000 H   0  0  0  0  0  0  0  0  0  0  0  0
   -6.8083    1.8957    0.0000 H   0  0  0  0  0  0  0  0  0  0  0  0
   -4.6855    3.6770    0.0000 H   0  0  0  0  0  0  0  0  0  0  0  0
  1  2  1  0  0  0  0
  2  3  2  0  0  0  0
  2  4  1  0  0  0  0
  4  5  1  0  0  0  0
  5  6  1  0  0  0  0
  5  7  1  0  0  0  0
  5  8  1  0  0  0  0
  8  9  1  0  0  0  0
  8 10  1  0  0  0  0
  8 11  1  0  0  0  0
  4 12  1  0  0  0  0
 12 13  1  0  0  0  0
 12 14  1  0  0  0  0
 12 15  1  0  0  0  0
 15 16  1  0  0  0  0
 15 17  1  0  0  0  0
 15 18  1  0  0  0  0
  4 19  1  0  0  0  0
 19 20  2  0  0  0  0
 19 21  1  0  0  0  0
 21 22  1  0  0  0  0
 21 23  1  0  0  0  0
 21 24  1  0  0  0  0
  1 25  1  0  0  0  0
 25 26  1  0  0  0  0
 25 27  1  0  0  0  0
 25 28  1  0  0  0  0
 28 29  1  0  0  0  0
 28 30  1  0  0  0  0
 28 31  1  0  0  0  0
M  END
> <ChemID>
103929

> <source_casrn>
1619-57-4

> <CAS>
1619-57-4

> <SMILES>
CC(=O)C(CC)(CC)C(=O)OCC

> <NAME>
BUTANOIC ACID, 2,2-DIETHYL-3-OXO-, ETHYL ESTER

> <preferred_name>
Ethyl 2,2-diethylacetoacetate

> <iupac>
ethyl 2,2-diethyl-3-oxobutanoate

> <MPID>
22857

> <dsstox_substance_id>
DTXSID60167269

> <Canonical_QSARr>
CC(=O)C(CC)(CC)C(=O)OCC

> <InChI_Code_QSARr>
InChI=1S/C10H18O3/c1-5-10(6-2,8(4)11)9(12)13-7-3/h5-7H2,1-4H3

> <InChI Key_QSARr>
WEIQRLLXVVSKIL-UHFFFAOYSA-N

> <Salt_Solvent>
?

> <BP>
216.0

$$$$
103933
  -INDIGO-08031720192D

 14 13  0  0  0  0  0  0  0  0999 V2000
   -1.3857    0.8000    0.0000 C   0  0  0  0  0  0  0  0  0  0  0  0
   -1.3857    2.4000    0.0000 O   0  0  0  0  0  0  0  0  0  0  0  0
    0.0000    0.0000    0.0000 C   0  0  0  0  0  0  0  0  0  0  0  0
    0.6122   -1.4782    0.0000 H   0  0  0  0  0  0  0  0  0  0  0  0
   -0.6122   -1.4782    0.0000 H   0  0  0  0  0  0  0  0  0  0  0  0
    1.3856    0.8000    0.0000 C   0  0  0  0  0  0  0  0  0  0  0  0
    2.7713    1.6000    0.0000 H   0  0  0  0  0  0  0  0  0  0  0  0
    2.7713    0.0000    0.0000 H   0  0  0  0  0  0  0  0  0  0  0  0
    1.3856    2.4000    0.0000 H   0  0  0  0  0  0  0  0  0  0  0  0
   -2.7713    0.0000    0.0000 C   0  0  0  0  0  0  0  0  0  0  0  0
   -2.7713   -1.6000    0.0000 H   0  0  0  0  0  0  0  0  0  0  0  0
   -4.1569    0.8000    0.0000 C   0  0  0  0  0  0  0  0  0  0  0  0
   -5.5426    0.0000    0.0000 H   0  0  0  0  0  0  0  0  0  0  0  0
   -4.1570    2.4000    0.0000 H   0  0  0  0  0  0  0  0  0  0  0  0
  1  2  2  0  0  0  0
  1  3  1  0  0  0  0
  3  4  1  0  0  0  0
  3  5  1  0  0  0  0
  3  6  1  0  0  0  0
  6  7  1  0  0  0  0
  6  8  1  0  0  0  0
  6  9  1  0  0  0  0
  1 10  1  0  0  0  0
 10 11  1  0  0  0  0
 10 12  2  0  0  0  0
 12 13  1  0  0  0  0
 12 14  1  0  0  0  0
M  END
> <ChemID>
103933

> <source_casrn>
1629-58-9

> <CAS>
1629-58-9

> <SMILES>
CCC(=O)C=C

> <NAME>
1-Penten-3-one

> <preferred_name>
Ethyl vinyl ketone

> <iupac>
pent-1-en-3-one

> <MPID>
22861

> <dsstox_substance_id>
DTXSID5025318

> <Canonical_QSARr>
CCC(=O)C=C

> <InChI_Code_QSARr>
InChI=1S/C5H8O/c1-3-5(6)4-2/h3H,1,4H2,2H3

> <InChI Key_QSARr>
JLIDVCMBCGBIEY-UHFFFAOYSA-N

> <Salt_Solvent>
?

> <BP>
103.0

$$$$
103938
  -INDIGO-08031720192D

 18 17  0  0  0  0  0  0  0  0999 V2000
    1.3856   -0.8000    0.0000 C   0  0  0  0  0  0  0  0  0  0  0  0
    2.7713   -1.6000    0.0000 H   0  0  0  0  0  0  0  0  0  0  0  0
    2.7713    0.0000    0.0000 H   0  0  0  0  0  0  0  0  0  0  0  0
    1.3856   -2.4000    0.0000 H   0  0  0  0  0  0  0  0  0  0  0  0
    0.0001    0.0000    0.0000 C   0  0  0  0  0  0  0  0  0  0  0  0
    0.8000    1.3856    0.0000 O   0  0  0  0  0  0  0  0  0  0  0  0
    2.4000    1.3856    0.0000 C   0  0  0  0  0  0  0  0  0  0  0  0
    3.2000    2.7713    0.0000 H   0  0  0  0  0  0  0  0  0  0  0  0
    4.0000    1.3856    0.0000 H   0  0  0  0  0  0  0  0  0  0  0  0
    1.6000    2.7713    0.0000 H   0  0  0  0  0  0  0  0  0  0  0  0
   -1.3856    0.8000    0.0000 C   0  0  0  0  0  0  0  0  0  0  0  0
   -2.7713    1.6000    0.0000 H   0  0  0  0  0  0  0  0  0  0  0  0
   -1.3856    2.4000    0.0000 H   0  0  0  0  0  0  0  0  0  0  0  0
   -2.7713    0.0000    0.0000 H   0  0  0  0  0  0  0  0  0  0  0  0
   -0.8000   -1.3856    0.0000 C   0  0  0  0  0  0  0  0  0  0  0  0
   -1.6000   -2.7713    0.0000 H   0  0  0  0  0  0  0  0  0  0  0  0
   -0.0001   -2.7713    0.0000 H   0  0  0  0  0  0  0  0  0  0  0  0
   -2.4000   -1.3856    0.0000 H   0  0  0  0  0  0  0  0  0  0  0  0
  1  2  1  0  0  0  0
  1  3  1  0  0  0  0
  1  4  1  0  0  0  0
  1  5  1  0  0  0  0
  5  6  1  0  0  0  0
  6  7  1  0  0  0  0
  7  8  1  0  0  0  0
  7  9  1  0  0  0  0
  7 10  1  0  0  0  0
  5 11  1  0  0  0  0
 11 12  1  0  0  0  0
 11 13  1  0  0  0  0
 11 14  1  0  0  0  0
  5 15  1  0  0  0  0
 15 16  1  0  0  0  0
 15 17  1  0  0  0  0
 15 18  1  0  0  0  0
M  END
> <ChemID>
103938

> <source_casrn>
1634-04-4

> <CAS>
1634-04-4

> <SMILES>
COC(C)(C)C

> <NAME>
METHYL T-BUTYL ETHER

> <preferred_name>
Methyl tert-butyl ether

> <iupac>
tert-butyl methyl ether

> <MPID>
22865

> <dsstox_substance_id>
DTXSID3020833

> <Canonical_QSARr>
COC(C)(C)C

> <InChI_Code_QSARr>
InChI=1S/C5H12O/c1-5(2,3)6-4/h1-4H3

> <InChI Key_QSARr>
BZLVMXJERCGZMT-UHFFFAOYSA-N

> <Salt_Solvent>
?

> <BP>
55.2

$$$$
103942
  -INDIGO-08031720192D

 25 25  0  0  0  0  0  0  0  0999 V2000
    5.5426    1.6000    0.0000 C   0  0  0  0  0  0  0  0  0  0  0  0
    6.9281    2.4000    0.0000 O   0  0  0  0  0  0  0  0  0  0  0  0
    8.3138    1.6000    0.0000 H   0  0  0  0  0  0  0  0  0  0  0  0
    4.1569    2.4000    0.0000 C   0  0  0  0  0  0  0  0  0  0  0  0
    4.1569    4.0000    0.0000 H   0  0  0  0  0  0  0  0  0  0  0  0
    2.7712    1.6000    0.0000 C   0  0  0  0  0  0  0  0  0  0  0  0
    1.3857    2.4000    0.0000 H   0  0  0  0  0  0  0  0  0  0  0  0
    2.7712    0.0000    0.0000 C   0  0  0  0  0  0  0  0  0  0  0  0
    1.3857   -0.8000    0.0000 C   0  0  0  0  0  0  0  0  0  0  0  0
    1.9979   -2.2782    0.0000 H   0  0  0  0  0  0  0  0  0  0  0  0
    0.7733   -2.2782    0.0000 H   0  0  0  0  0  0  0  0  0  0  0  0
    0.0000    0.0000    0.0000 C   0  0  0  0  0  0  0  0  0  0  0  0
   -0.6124    1.4782    0.0000 H   0  0  0  0  0  0  0  0  0  0  0  0
    0.6124    1.4782    0.0000 H   0  0  0  0  0  0  0  0  0  0  0  0
   -1.3857   -0.8000    0.0000 C   0  0  0  0  0  0  0  0  0  0  0  0
   -0.7733   -2.2782    0.0000 H   0  0  0  0  0  0  0  0  0  0  0  0
   -1.9979   -2.2782    0.0000 H   0  0  0  0  0  0  0  0  0  0  0  0
   -2.7712    0.0000    0.0000 C   0  0  0  0  0  0  0  0  0  0  0  0
   -4.1569    0.8000    0.0000 H   0  0  0  0  0  0  0  0  0  0  0  0
   -4.1569   -0.8000    0.0000 H   0  0  0  0  0  0  0  0  0  0  0  0
   -2.7712    1.6000    0.0000 H   0  0  0  0  0  0  0  0  0  0  0  0
    4.1569   -0.8000    0.0000 C   0  0  0  0  0  0  0  0  0  0  0  0
    4.1569   -2.4000    0.0000 H   0  0  0  0  0  0  0  0  0  0  0  0
    5.5426    0.0000    0.0000 C   0  0  0  0  0  0  0  0  0  0  0  0
    6.9281   -0.8000    0.0000 H   0  0  0  0  0  0  0  0  0  0  0  0
  1  2  1  0  0  0  0
  2  3  1  0  0  0  0
  1  4  1  0  0  0  0
  4  5  1  0  0  0  0
  4  6  2  0  0  0  0
  6  7  1  0  0  0  0
  6  8  1  0  0  0  0
  8  9  1  0  0  0  0
  9 10  1  0  0  0  0
  9 11  1  0  0  0  0
  9 12  1  0  0  0  0
 12 13  1  0  0  0  0
 12 14  1  0  0  0  0
 12 15  1  0  0  0  0
 15 16  1  0  0  0  0
 15 17  1  0  0  0  0
 15 18  1  0  0  0  0
 18 19  1  0  0  0  0
 18 20  1  0  0  0  0
 18 21  1  0  0  0  0
  8 22  2  0  0  0  0
 22 23  1  0  0  0  0
 22 24  1  0  0  0  0
 24  1  2  0  0  0  0
 24 25  1  0  0  0  0
M  END
> <ChemID>
103942

> <source_casrn>
1638-22-8

> <CAS>
1638-22-8

> <SMILES>
CCCCc1ccc(O)cc1

> <NAME>
P-BUTYLPHENOL

> <preferred_name>
4-Butylphenol

> <iupac>
4-butylphenol

> <MPID>
22869

> <dsstox_substance_id>
DTXSID3047425

> <Canonical_QSARr>
CCCCc1ccc(O)cc1

> <InChI_Code_QSARr>
InChI=1S/C10H14O/c1-2-3-4-9-5-7-10(11)8-6-9/h5-8,11H,2-4H2,1H3

> <InChI Key_QSARr>
CYYZDBDROVLTJU-UHFFFAOYSA-N

> <Salt_Solvent>
?

> <BP>
248.0

$$$$
103946
  -INDIGO-08031720192D

 19 18  0  0  0  0  0  0  0  0999 V2000
    2.7712   -0.0000    0.0000 N   0  0  0  0  0  0  0  0  0  0  0  0
    4.1569   -0.8000    0.0000 O   0  0  0  0  0  0  0  0  0  0  0  0
    1.3857   -0.8000    0.0000 C   0  0  0  0  0  0  0  0  0  0  0  0
    0.7733   -2.2782    0.0000 H   0  0  0  0  0  0  0  0  0  0  0  0
    1.9979   -2.2782    0.0000 H   0  0  0  0  0  0  0  0  0  0  0  0
   -0.0000   -0.0000    0.0000 C   0  0  0  0  0  0  0  0  0  0  0  0
   -0.8000   -1.3856    0.0000 S   0  0  0  0  0  0  0  0  0  0  0  0
   -2.4000   -1.3856    0.0000 C   0  0  0  0  0  0  0  0  0  0  0  0
   -3.2001   -2.7713    0.0000 H   0  0  0  0  0  0  0  0  0  0  0  0
   -4.0000   -1.3856    0.0000 H   0  0  0  0  0  0  0  0  0  0  0  0
   -1.6000   -2.7713    0.0000 H   0  0  0  0  0  0  0  0  0  0  0  0
   -1.3857    0.8000    0.0000 C   0  0  0  0  0  0  0  0  0  0  0  0
   -2.7713    1.6000    0.0000 H   0  0  0  0  0  0  0  0  0  0  0  0
   -1.3857    2.4000    0.0000 H   0  0  0  0  0  0  0  0  0  0  0  0
   -2.7713   -0.0000    0.0000 H   0  0  0  0  0  0  0  0  0  0  0  0
    0.8001    1.3856    0.0000 C   0  0  0  0  0  0  0  0  0  0  0  0
    1.6000    2.7713    0.0000 H   0  0  0  0  0  0  0  0  0  0  0  0
    2.4000    1.3856    0.0000 H   0  0  0  0  0  0  0  0  0  0  0  0
   -0.0000    2.7713    0.0000 H   0  0  0  0  0  0  0  0  0  0  0  0
  1  2  2  0  0  0  0
  1  3  1  0  0  0  0
  3  4  1  0  0  0  0
  3  5  1  0  0  0  0
  3  6  1  0  0  0  0
  6  7  1  0  0  0  0
  7  8  1  0  0  0  0
  8  9  1  0  0  0  0
  8 10  1  0  0  0  0
  8 11  1  0  0  0  0
  6 12  1  0  0  0  0
 12 13  1  0  0  0  0
 12 14  1  0  0  0  0
 12 15  1  0  0  0  0
  6 16  1  0  0  0  0
 16 17  1  0  0  0  0
 16 18  1  0  0  0  0
 16 19  1  0  0  0  0
M  END
> <ChemID>
103946

> <source_casrn>
1646-75-9

> <CAS>
1646-75-9

> <SMILES>
CSC(C)(C)C=NO

> <NAME>
Aldicarb oxime

> <preferred_name>
Aldicarb oxime

> <iupac>
N-hydroxy-2-methyl-2-(methylsulfanyl)propan-1-imine

> <MPID>
22873

> <dsstox_substance_id>
DTXSID9024431

> <Canonical_QSARr>
CSC(C)(C)CN=O

> <InChI_Code_QSARr>
InChI=1S/C5H11NOS/c1-5(2,8-3)4-6-7/h4H2,1-3H3

> <InChI Key_QSARr>
YKGXIGMQHJBDGN-UHFFFAOYSA-N

> <Salt_Solvent>
?

> <BP>
210.0

$$$$
103950
  -INDIGO-08031720192D

 10  9  0  0  0  0  0  0  0  0999 V2000
    1.3856   -0.8000    0.0000 C   0  0  0  0  0  0  0  0  0  0  0  0
    2.7713    0.0000    0.0000 H   0  0  0  0  0  0  0  0  0  0  0  0
    1.3856   -2.4000    0.0000 H   0  0  0  0  0  0  0  0  0  0  0  0
    0.0000    0.0000    0.0000 C   0  0  0  0  0  0  0  0  0  0  0  0
   -1.3856   -0.8000    0.0000 C   0  0  0  0  0  0  0  0  0  0  0  0
   -2.7713    0.0000    0.0000 C   0  0  0  0  0  0  0  0  0  0  0  0
   -4.1569   -0.8000    0.0000 H   0  0  0  0  0  0  0  0  0  0  0  0
   -2.7713    1.6000    0.0000 H   0  0  0  0  0  0  0  0  0  0  0  0
   -1.3856   -2.4000    0.0000 Cl  0  0  0  0  0  0  0  0  0  0  0  0
    0.0000    1.6000    0.0000 Cl  0  0  0  0  0  0  0  0  0  0  0  0
  1  2  1  0  0  0  0
  1  3  1  0  0  0  0
  1  4  2  0  0  0  0
  4  5  1  0  0  0  0
  5  6  2  0  0  0  0
  6  7  1  0  0  0  0
  6  8  1  0  0  0  0
  5  9  1  0  0  0  0
  4 10  1  0  0  0  0
M  END
> <ChemID>
103950

> <source_casrn>
1653-19-6

> <CAS>
1653-19-6

> <SMILES>
C=C(Cl)C(=C)Cl

> <NAME>
2,3-DICHLOROBUTA-1,3-DIENE

> <preferred_name>
2,3-Dichloro-1,3-butadiene

> <iupac>
2,3-dichlorobuta-1,3-diene

> <MPID>
22877

> <dsstox_substance_id>
DTXSID1027423

> <Canonical_QSARr>
C=C(Cl)C(=C)Cl

> <InChI_Code_QSARr>
InChI=1S/C4H4Cl2/c1-3(5)4(2)6/h1-2H2

> <InChI Key_QSARr>
LIFLRQVHKGGNSG-UHFFFAOYSA-N

> <Salt_Solvent>
?

> <BP>
98.0

$$$$
103955
  -INDIGO-08031720192D

 26 26  0  0  0  0  0  0  0  0999 V2000
    0.0000   -0.0001    0.0000 C   0  0  0  0  0  0  0  0  0  0  0  0
    1.3857    0.8000    0.0000 C   0  0  0  0  0  0  0  0  0  0  0  0
    1.3857    2.4000    0.0000 C   0  0  0  0  0  0  0  0  0  0  0  0
    1.3857    4.0000    0.0000 H   0  0  0  0  0  0  0  0  0  0  0  0
    2.7713    3.1999    0.0000 H   0  0  0  0  0  0  0  0  0  0  0  0
    0.0000    3.1999    0.0000 H   0  0  0  0  0  0  0  0  0  0  0  0
    2.7713    0.0001    0.0000 C   0  0  0  0  0  0  0  0  0  0  0  0
    4.1570    0.8000    0.0000 H   0  0  0  0  0  0  0  0  0  0  0  0
    2.7713   -1.5999    0.0000 C   0  0  0  0  0  0  0  0  0  0  0  0
    4.1570   -2.4000    0.0000 C   0  0  0  0  0  0  0  0  0  0  0  0
    5.5426   -3.1999    0.0000 H   0  0  0  0  0  0  0  0  0  0  0  0
    4.1570   -4.0000    0.0000 H   0  0  0  0  0  0  0  0  0  0  0  0
    5.5426   -1.6001    0.0000 H   0  0  0  0  0  0  0  0  0  0  0  0
    1.3857   -2.4000    0.0000 C   0  0  0  0  0  0  0  0  0  0  0  0
    1.3857   -4.0000    0.0000 H   0  0  0  0  0  0  0  0  0  0  0  0
    0.0000   -1.5999    0.0000 C   0  0  0  0  0  0  0  0  0  0  0  0
   -1.3856   -2.4000    0.0000 C   0  0  0  0  0  0  0  0  0  0  0  0
   -2.7713   -3.1999    0.0000 H   0  0  0  0  0  0  0  0  0  0  0  0
   -1.3857   -4.0000    0.0000 H   0  0  0  0  0  0  0  0  0  0  0  0
   -2.7713   -1.5999    0.0000 H   0  0  0  0  0  0  0  0  0  0  0  0
   -1.3856    0.8000    0.0000 C   0  0  0  0  0  0  0  0  0  0  0  0
   -1.3856    2.4000    0.0000 C   0  0  0  0  0  0  0  0  0  0  0  0
   -2.7713    3.1999    0.0000 H   0  0  0  0  0  0  0  0  0  0  0  0
   -1.3856    4.0000    0.0000 H   0  0  0  0  0  0  0  0  0  0  0  0
   -2.7713    1.5999    0.0000 H   0  0  0  0  0  0  0  0  0  0  0  0
   -2.7713   -0.0001    0.0000 O   0  0  0  0  0  0  0  0  0  0  0  0
  1  2  1  0  0  0  0
  2  3  1  0  0  0  0
  3  4  1  0  0  0  0
  3  5  1  0  0  0  0
  3  6  1  0  0  0  0
  2  7  2  0  0  0  0
  7  8  1  0  0  0  0
  7  9  1  0  0  0  0
  9 10  1  0  0  0  0
 10 11  1  0  0  0  0
 10 12  1  0  0  0  0
 10 13  1  0  0  0  0
  9 14  2  0  0  0  0
 14 15  1  0  0  0  0
 14 16  1  0  0  0  0
 16  1  2  0  0  0  0
 16 17  1  0  0  0  0
 17 18  1  0  0  0  0
 17 19  1  0  0  0  0
 17 20  1  0  0  0  0
  1 21  1  0  0  0  0
 21 22  1  0  0  0  0
 22 23  1  0  0  0  0
 22 24  1  0  0  0  0
 22 25  1  0  0  0  0
 21 26  2  0  0  0  0
M  END
> <ChemID>
103955

> <source_casrn>
1667-01-2

> <CAS>
1667-01-2

> <SMILES>
Cc1cc(C)c(C(C)=O)c(C)c1

> <NAME>
Ethanone, 1-(2,4,6-trimethylphenyl)-

> <preferred_name>
2',4',6'-Trimethylacetophenone

> <iupac>
1-(2,4,6-trimethylphenyl)ethanone

> <MPID>
22881

> <dsstox_substance_id>
DTXSID1061865

> <Canonical_QSARr>
Cc1cc(C)c(C(C)=O)c(C)c1

> <InChI_Code_QSARr>
InChI=1S/C11H14O/c1-7-5-8(2)11(10(4)12)9(3)6-7/h5-6H,1-4H3

> <InChI Key_QSARr>
XWCIICLTKWRWCI-UHFFFAOYSA-N

> <Salt_Solvent>
?

> <BP>
241.0

$$$$
103959
  -INDIGO-08031720192D

 17 16  0  0  0  0  0  0  0  0999 V2000
    2.7713   -0.0000    0.0000 C   0  0  0  0  0  0  0  0  0  0  0  0
    4.1569   -0.8000    0.0000 H   0  0  0  0  0  0  0  0  0  0  0  0
    4.1569    0.8000    0.0000 H   0  0  0  0  0  0  0  0  0  0  0  0
    1.3856    0.8000    0.0000 C   0  0  0  0  0  0  0  0  0  0  0  0
    0.7734    2.2782    0.0000 H   0  0  0  0  0  0  0  0  0  0  0  0
    0.0001   -0.0000    0.0000 C   0  0  0  0  0  0  0  0  0  0  0  0
    0.6123   -1.4782    0.0000 H   0  0  0  0  0  0  0  0  0  0  0  0
   -0.6123   -1.4782    0.0000 H   0  0  0  0  0  0  0  0  0  0  0  0
   -1.3856    0.8000    0.0000 C   0  0  0  0  0  0  0  0  0  0  0  0
   -1.9979    2.2782    0.0000 H   0  0  0  0  0  0  0  0  0  0  0  0
   -0.7734    2.2782    0.0000 H   0  0  0  0  0  0  0  0  0  0  0  0
   -2.7713   -0.0000    0.0000 C   0  0  0  0  0  0  0  0  0  0  0  0
   -4.1569   -0.8000    0.0000 H   0  0  0  0  0  0  0  0  0  0  0  0
   -4.1569    0.8000    0.0000 H   0  0  0  0  0  0  0  0  0  0  0  0
   -2.7713   -1.6000    0.0000 H   0  0  0  0  0  0  0  0  0  0  0  0
    1.9979    2.2782    0.0000 Cl  0  0  0  0  0  0  0  0  0  0  0  0
    2.7713   -1.6000    0.0000 Cl  0  0  0  0  0  0  0  0  0  0  0  0
  1  2  1  0  0  0  0
  1  3  1  0  0  0  0
  1  4  1  0  0  0  0
  4  5  1  0  0  0  0
  4  6  1  0  0  0  0
  6  7  1  0  0  0  0
  6  8  1  0  0  0  0
  6  9  1  0  0  0  0
  9 10  1  0  0  0  0
  9 11  1  0  0  0  0
  9 12  1  0  0  0  0
 12 13  1  0  0  0  0
 12 14  1  0  0  0  0
 12 15  1  0  0  0  0
  4 16  1  0  0  0  0
  1 17  1  0  0  0  0
M  END
> <ChemID>
103959

> <source_casrn>
1674-33-5

> <CAS>
NOCAS_870901

> <SMILES>
CCCC(Cl)CCl

> <NAME>
PENTANE, 1,2-DICHLORO-

> <preferred_name>


> <iupac>


> <MPID>
22885

> <dsstox_substance_id>
DTXSID40870901

> <Canonical_QSARr>
CCCC(Cl)CCl

> <InChI_Code_QSARr>
InChI=1S/C5H10Cl2/c1-2-3-5(7)4-6/h5H,2-4H2,1H3

> <InChI Key_QSARr>
PPLBPDUKNRCHGG-UHFFFAOYSA-N

> <Salt_Solvent>
?

> <BP>
148.3

$$$$
103965
  -INDIGO-08031720192D

 30 30  0  0  0  0  0  0  0  0999 V2000
    0.0001    0.0000    0.0000 C   0  0  0  0  0  0  0  0  0  0  0  0
    1.2256   -1.0285    0.0000 H   0  0  0  0  0  0  0  0  0  0  0  0
   -0.7999    1.3856    0.0000 C   0  0  0  0  0  0  0  0  0  0  0  0
    0.7757    1.6634    0.0000 H   0  0  0  0  0  0  0  0  0  0  0  0
   -1.0778    2.9613    0.0000 H   0  0  0  0  0  0  0  0  0  0  0  0
   -2.3999    1.3856    0.0000 C   0  0  0  0  0  0  0  0  0  0  0  0
   -2.1221    2.9613    0.0000 H   0  0  0  0  0  0  0  0  0  0  0  0
   -3.9035    1.9329    0.0000 H   0  0  0  0  0  0  0  0  0  0  0  0
   -3.1999    0.0000    0.0000 C   0  0  0  0  0  0  0  0  0  0  0  0
   -4.4257    1.0284    0.0000 H   0  0  0  0  0  0  0  0  0  0  0  0
   -4.4257   -1.0285    0.0000 H   0  0  0  0  0  0  0  0  0  0  0  0
   -2.3999   -1.3856    0.0000 C   0  0  0  0  0  0  0  0  0  0  0  0
   -3.9035   -1.9328    0.0000 H   0  0  0  0  0  0  0  0  0  0  0  0
   -2.1221   -2.9613    0.0000 H   0  0  0  0  0  0  0  0  0  0  0  0
   -0.7999   -1.3856    0.0000 C   0  0  0  0  0  0  0  0  0  0  0  0
   -1.0778   -2.9613    0.0000 H   0  0  0  0  0  0  0  0  0  0  0  0
    0.7035   -1.9328    0.0000 H   0  0  0  0  0  0  0  0  0  0  0  0
    1.2256    1.0284    0.0000 C   0  0  0  0  0  0  0  0  0  0  0  0
    0.3660    2.3779    0.0000 H   0  0  0  0  0  0  0  0  0  0  0  0
    1.5719    2.5906    0.0000 H   0  0  0  0  0  0  0  0  0  0  0  0
    2.7292    0.4812    0.0000 C   0  0  0  0  0  0  0  0  0  0  0  0
    3.5888   -0.8682    0.0000 H   0  0  0  0  0  0  0  0  0  0  0  0
    2.3829   -1.0808    0.0000 H   0  0  0  0  0  0  0  0  0  0  0  0
    3.9549    1.5097    0.0000 C   0  0  0  0  0  0  0  0  0  0  0  0
    3.0951    2.8591    0.0000 H   0  0  0  0  0  0  0  0  0  0  0  0
    4.3012    3.0718    0.0000 H   0  0  0  0  0  0  0  0  0  0  0  0
    5.4583    0.9625    0.0000 C   0  0  0  0  0  0  0  0  0  0  0  0
    6.9619    0.4152    0.0000 H   0  0  0  0  0  0  0  0  0  0  0  0
    6.6840    1.9909    0.0000 H   0  0  0  0  0  0  0  0  0  0  0  0
    5.7361   -0.6133    0.0000 H   0  0  0  0  0  0  0  0  0  0  0  0
  1  2  1  0  0  0  0
  1  3  1  0  0  0  0
  3  4  1  0  0  0  0
  3  5  1  0  0  0  0
  3  6  1  0  0  0  0
  6  7  1  0  0  0  0
  6  8  1  0  0  0  0
  6  9  1  0  0  0  0
  9 10  1  0  0  0  0
  9 11  1  0  0  0  0
  9 12  1  0  0  0  0
 12 13  1  0  0  0  0
 12 14  1  0  0  0  0
 12 15  1  0  0  0  0
 15  1  1  0  0  0  0
 15 16  1  0  0  0  0
 15 17  1  0  0  0  0
  1 18  1  0  0  0  0
 18 19  1  0  0  0  0
 18 20  1  0  0  0  0
 18 21  1  0  0  0  0
 21 22  1  0  0  0  0
 21 23  1  0  0  0  0
 21 24  1  0  0  0  0
 24 25  1  0  0  0  0
 24 26  1  0  0  0  0
 24 27  1  0  0  0  0
 27 28  1  0  0  0  0
 27 29  1  0  0  0  0
 27 30  1  0  0  0  0
M  END
> <ChemID>
103965

> <source_casrn>
1678-93-9

> <CAS>
1678-93-9

> <SMILES>
CCCCC1CCCCC1

> <NAME>
BUTYLCYCLOHEXANE

> <preferred_name>
Cyclohexane, butyl-

> <iupac>
Butylcyclohexane

> <MPID>
22890

> <dsstox_substance_id>
DTXSID0061876

> <Canonical_QSARr>
CCCCC1CCCCC1

> <InChI_Code_QSARr>
InChI=1S/C10H20/c1-2-3-7-10-8-5-4-6-9-10/h10H,2-9H2,1H3

> <InChI Key_QSARr>
GGBJHURWWWLEQH-UHFFFAOYSA-N

> <Salt_Solvent>
?

> <BP>
180.9

$$$$
103969
  -INDIGO-08031720192D

 16 16  0  0  0  0  0  0  0  0999 V2000
   -0.4944    1.5217    0.0000 C   0  0  0  0  0  0  0  0  0  0  0  0
    1.0706    1.8544    0.0000 H   0  0  0  0  0  0  0  0  0  0  0  0
   -0.6616    3.1129    0.0000 H   0  0  0  0  0  0  0  0  0  0  0  0
    0.0000    0.0000    0.0000 C   0  0  0  0  0  0  0  0  0  0  0  0
    1.4617    0.6508    0.0000 H   0  0  0  0  0  0  0  0  0  0  0  0
    0.8000   -1.3856    0.0000 S   0  0  0  0  0  0  0  0  0  0  0  0
    2.4000   -1.3856    0.0000 H   0  0  0  0  0  0  0  0  0  0  0  0
   -1.2944   -0.9405    0.0000 C   0  0  0  0  0  0  0  0  0  0  0  0
   -0.2238   -2.1295    0.0000 H   0  0  0  0  0  0  0  0  0  0  0  0
   -2.3650   -2.1295    0.0000 H   0  0  0  0  0  0  0  0  0  0  0  0
   -2.5889    0.0000    0.0000 C   0  0  0  0  0  0  0  0  0  0  0  0
   -3.3889   -1.3856    0.0000 H   0  0  0  0  0  0  0  0  0  0  0  0
   -4.0505    0.6508    0.0000 H   0  0  0  0  0  0  0  0  0  0  0  0
   -2.0945    1.5217    0.0000 C   0  0  0  0  0  0  0  0  0  0  0  0
   -3.6595    1.8544    0.0000 H   0  0  0  0  0  0  0  0  0  0  0  0
   -1.9272    3.1129    0.0000 H   0  0  0  0  0  0  0  0  0  0  0  0
  1  2  1  0  0  0  0
  1  3  1  0  0  0  0
  1  4  1  0  0  0  0
  4  5  1  0  0  0  0
  4  6  1  0  0  0  0
  6  7  1  0  0  0  0
  4  8  1  0  0  0  0
  8  9  1  0  0  0  0
  8 10  1  0  0  0  0
  8 11  1  0  0  0  0
 11 12  1  0  0  0  0
 11 13  1  0  0  0  0
 11 14  1  0  0  0  0
 14  1  1  0  0  0  0
 14 15  1  0  0  0  0
 14 16  1  0  0  0  0
M  END
> <ChemID>
103969

> <source_casrn>
1679-07-8

> <CAS>
1679-07-8

> <SMILES>
SC1CCCC1

> <NAME>
CYCLOPENTANETHIOL

> <preferred_name>
Cyclopentanethiol

> <iupac>
cyclopentanethiol

> <MPID>
22894

> <dsstox_substance_id>
DTXSID1047108

> <Canonical_QSARr>
SC1CCCC1

> <InChI_Code_QSARr>
InChI=1S/C5H10S/c6-5-3-1-2-4-5/h5-6H,1-4H2

> <InChI Key_QSARr>
WVDYBOADDMMFIY-UHFFFAOYSA-N

> <Salt_Solvent>
?

> <BP>
132.1

$$$$
103973
  -INDIGO-08031720192D

  9  8  0  0  0  0  0  0  0  0999 V2000
    1.3856   -0.8000    0.0000 O   0  0  0  0  0  0  0  0  0  0  0  0
    2.7713    0.0000    0.0000 C   0  0  0  0  0  0  0  0  0  0  0  0
    4.1569    0.8000    0.0000 H   0  0  0  0  0  0  0  0  0  0  0  0
    4.1569   -0.8000    0.0000 F   0  0  0  0  0  0  0  0  0  0  0  0
    2.7713    1.6000    0.0000 F   0  0  0  0  0  0  0  0  0  0  0  0
    0.0000    0.0000    0.0000 C   0  0  0  0  0  0  0  0  0  0  0  0
   -1.3856    0.8000    0.0000 H   0  0  0  0  0  0  0  0  0  0  0  0
    0.0000    1.6000    0.0000 F   0  0  0  0  0  0  0  0  0  0  0  0
   -1.3856   -0.8000    0.0000 F   0  0  0  0  0  0  0  0  0  0  0  0
  1  2  1  0  0  0  0
  2  3  1  0  0  0  0
  2  4  1  0  0  0  0
  2  5  1  0  0  0  0
  1  6  1  0  0  0  0
  6  7  1  0  0  0  0
  6  8  1  0  0  0  0
  6  9  1  0  0  0  0
M  END
> <ChemID>
103973

> <source_casrn>
1691-17-4

> <CAS>
1691-17-4

> <SMILES>
FC(F)OC(F)F

> <NAME>
Di(difluoromethyl) ether

> <preferred_name>
Methane, oxybis[difluoro-

> <iupac>
difluoromethoxy-difluoromethane

> <MPID>
22898

> <dsstox_substance_id>
DTXSID2073271

> <Canonical_QSARr>
FC(F)OC(F)F

> <InChI_Code_QSARr>
InChI=1S/C2H2F4O/c3-1(4)7-2(5)6/h1-2H

> <InChI Key_QSARr>
IOCGMLSHRBHNCM-UHFFFAOYSA-N

> <Salt_Solvent>
?

> <BP>
6.35

$$$$
103977
  -INDIGO-08031720192D

 11 11  0  0  0  0  0  0  0  0999 V2000
    1.3856    0.8000    0.0000 O   0  0  0  0  0  0  0  0  0  0  0  0
    1.0529    2.3650    0.0000 C   0  0  0  0  0  0  0  0  0  0  0  0
    2.6442    2.5323    0.0000 H   0  0  0  0  0  0  0  0  0  0  0  0
    1.0529    3.9650    0.0000 H   0  0  0  0  0  0  0  0  0  0  0  0
   -0.5382    2.5323    0.0000 C   0  0  0  0  0  0  0  0  0  0  0  0
   -1.3382    3.9179    0.0000 H   0  0  0  0  0  0  0  0  0  0  0  0
   -1.1891    1.0706    0.0000 C   0  0  0  0  0  0  0  0  0  0  0  0
   -2.7541    0.7379    0.0000 H   0  0  0  0  0  0  0  0  0  0  0  0
   -0.0000    0.0000    0.0000 C   0  0  0  0  0  0  0  0  0  0  0  0
   -1.1891   -1.0706    0.0000 H   0  0  0  0  0  0  0  0  0  0  0  0
    0.9404   -1.2944    0.0000 H   0  0  0  0  0  0  0  0  0  0  0  0
  1  2  1  0  0  0  0
  2  3  1  0  0  0  0
  2  4  1  0  0  0  0
  2  5  1  0  0  0  0
  5  6  1  0  0  0  0
  5  7  2  0  0  0  0
  7  8  1  0  0  0  0
  7  9  1  0  0  0  0
  9  1  1  0  0  0  0
  9 10  1  0  0  0  0
  9 11  1  0  0  0  0
M  END
> <ChemID>
103977

> <source_casrn>
1708-29-8

> <CAS>
1708-29-8

> <SMILES>
C1C=CCO1

> <NAME>
2,5-DIHYDROFURAN

> <preferred_name>
2,5-Dihydrofuran

> <iupac>
2,5-dihydrofuran

> <MPID>
22902

> <dsstox_substance_id>
DTXSID5051785

> <Canonical_QSARr>
C1C=CCO1

> <InChI_Code_QSARr>
InChI=1S/C4H6O/c1-2-4-5-3-1/h1-2H,3-4H2

> <InChI Key_QSARr>
ARGCQEVBJHPOGB-UHFFFAOYSA-N

> <Salt_Solvent>
?

> <BP>
66.5

$$$$
103981
  -INDIGO-08031720192D

 14 13  0  0  0  0  0  0  0  0999 V2000
   -0.0000    0.0000    0.0000 C   0  0  0  0  0  0  0  0  0  0  0  0
    1.3857   -0.8000    0.0000 H   0  0  0  0  0  0  0  0  0  0  0  0
   -1.3856    0.8000    0.0000 O   0  0  0  0  0  0  0  0  0  0  0  0
   -2.9613    0.5222    0.0000 N   0  0  0  0  0  0  0  0  0  0  0  0
   -3.9898    1.7479    0.0000 O   0  0  0  0  0  0  0  0  0  0  0  0
   -3.5085   -0.9814    0.0000 O   0  0  0  0  0  0  0  0  0  0  0  0
    0.8000    1.3856    0.0000 C   0  0  0  0  0  0  0  0  0  0  0  0
    1.6000    2.7713    0.0000 H   0  0  0  0  0  0  0  0  0  0  0  0
    2.4000    1.3856    0.0000 H   0  0  0  0  0  0  0  0  0  0  0  0
   -0.0000    2.7713    0.0000 H   0  0  0  0  0  0  0  0  0  0  0  0
   -0.8000   -1.3856    0.0000 C   0  0  0  0  0  0  0  0  0  0  0  0
   -1.6000   -2.7713    0.0000 H   0  0  0  0  0  0  0  0  0  0  0  0
   -0.0000   -2.7713    0.0000 H   0  0  0  0  0  0  0  0  0  0  0  0
   -2.4000   -1.3856    0.0000 H   0  0  0  0  0  0  0  0  0  0  0  0
  1  2  1  0  0  0  0
  1  3  1  0  0  0  0
  3  4  1  0  0  0  0
  4  5  2  0  0  0  0
  4  6  1  0  0  0  0
  1  7  1  0  0  0  0
  7  8  1  0  0  0  0
  7  9  1  0  0  0  0
  7 10  1  0  0  0  0
  1 11  1  0  0  0  0
 11 12  1  0  0  0  0
 11 13  1  0  0  0  0
 11 14  1  0  0  0  0
M  CHG  2   4   1   6  -1
M  END
> <ChemID>
103981

> <source_casrn>
1712-64-7

> <CAS>
1712-64-7

> <SMILES>
CC(C)O[N+]([O-])=O

> <NAME>
ISOPROPYL NITRATE

> <preferred_name>
Nitric acid, 1-methylethyl ester

> <iupac>
propan-2-yl nitrate

> <MPID>
22906

> <dsstox_substance_id>
DTXSID5061908

> <Canonical_QSARr>
CC(C)O[N+]([O-])=O

> <InChI_Code_QSARr>
InChI=1S/C3H7NO3/c1-3(2)7-4(5)6/h3H,1-2H3

> <InChI Key_QSARr>
GAPFWGOSHOCNBM-UHFFFAOYSA-N

> <Salt_Solvent>
?

> <BP>
100.0

$$$$
103985
  -INDIGO-08031720192D

 23 24  0  0  0  0  0  0  0  0999 V2000
    1.3856    2.4000    0.0000 N   0  0  0  0  0  0  0  0  0  0  0  0
    2.7713    1.6000    0.0000 C   0  0  0  0  0  0  0  0  0  0  0  0
    2.7713    0.0000    0.0000 C   0  0  0  0  0  0  0  0  0  0  0  0
    4.1570   -0.8000    0.0000 C   0  0  0  0  0  0  0  0  0  0  0  0
    4.1570   -2.4000    0.0000 H   0  0  0  0  0  0  0  0  0  0  0  0
    5.5426    0.0000    0.0000 C   0  0  0  0  0  0  0  0  0  0  0  0
    6.9282   -0.8000    0.0000 H   0  0  0  0  0  0  0  0  0  0  0  0
    5.5426    1.6000    0.0000 C   0  0  0  0  0  0  0  0  0  0  0  0
    6.9282    2.4000    0.0000 H   0  0  0  0  0  0  0  0  0  0  0  0
    4.1570    2.4000    0.0000 C   0  0  0  0  0  0  0  0  0  0  0  0
    4.1570    4.0000    0.0000 H   0  0  0  0  0  0  0  0  0  0  0  0
    1.3856   -0.8000    0.0000 C   0  0  0  0  0  0  0  0  0  0  0  0
    1.3856   -2.4000    0.0000 H   0  0  0  0  0  0  0  0  0  0  0  0
   -0.0000    0.0000    0.0000 C   0  0  0  0  0  0  0  0  0  0  0  0
   -1.3857   -0.8000    0.0000 C   0  0  0  0  0  0  0  0  0  0  0  0
   -2.7713   -1.6000    0.0000 H   0  0  0  0  0  0  0  0  0  0  0  0
   -2.7713    0.0000    0.0000 H   0  0  0  0  0  0  0  0  0  0  0  0
   -1.3857   -2.4000    0.0000 H   0  0  0  0  0  0  0  0  0  0  0  0
   -0.0000    1.6000    0.0000 C   0  0  0  0  0  0  0  0  0  0  0  0
   -1.3857    2.4000    0.0000 C   0  0  0  0  0  0  0  0  0  0  0  0
   -2.7713    3.2000    0.0000 H   0  0  0  0  0  0  0  0  0  0  0  0
   -1.3857    4.0000    0.0000 H   0  0  0  0  0  0  0  0  0  0  0  0
   -2.7713    1.6000    0.0000 H   0  0  0  0  0  0  0  0  0  0  0  0
  1  2  1  0  0  0  0
  2  3  1  0  0  0  0
  3  4  2  0  0  0  0
  4  5  1  0  0  0  0
  4  6  1  0  0  0  0
  6  7  1  0  0  0  0
  6  8  2  0  0  0  0
  8  9  1  0  0  0  0
  8 10  1  0  0  0  0
 10  2  2  0  0  0  0
 10 11  1  0  0  0  0
  3 12  1  0  0  0  0
 12 13  1  0  0  0  0
 12 14  2  0  0  0  0
 14 15  1  0  0  0  0
 15 16  1  0  0  0  0
 15 17  1  0  0  0  0
 15 18  1  0  0  0  0
 14 19  1  0  0  0  0
 19  1  2  0  0  0  0
 19 20  1  0  0  0  0
 20 21  1  0  0  0  0
 20 22  1  0  0  0  0
 20 23  1  0  0  0  0
M  END
> <ChemID>
103985

> <source_casrn>
1721-89-7

> <CAS>
1721-89-7

> <SMILES>
Cc1cc2ccccc2[n]c1C

> <NAME>
QUINOLINE, 2,3-DIMETHYL-

> <preferred_name>
2,3-Dimethylquinoline

> <iupac>
2,3-DIMETHYLQUINOLINE

> <MPID>
22910

> <dsstox_substance_id>
DTXSID00169207

> <Canonical_QSARr>
Cc1cc2ccccc2[n]c1C

> <InChI_Code_QSARr>
InChI=1S/C11H11N/c1-8-7-10-5-3-4-6-11(10)12-9(8)2/h3-7H,1-2H3

> <InChI Key_QSARr>
FBOFHVFMPNNIKN-UHFFFAOYSA-N

> <Salt_Solvent>
?

> <BP>
263.0

$$$$
103989
  -INDIGO-08031720192D

 28 27  0  0  0  0  0  0  0  0999 V2000
    2.7712   -0.0000    0.0000 B   0  0  0  0  0  0  0  0  0  0  0  0
    4.1569    0.8000    0.0000 C   0  0  0  0  0  0  0  0  0  0  0  0
    3.5446    2.2782    0.0000 H   0  0  0  0  0  0  0  0  0  0  0  0
    4.7692    2.2782    0.0000 H   0  0  0  0  0  0  0  0  0  0  0  0
    5.5427   -0.0000    0.0000 C   0  0  0  0  0  0  0  0  0  0  0  0
    6.1548   -1.4782    0.0000 H   0  0  0  0  0  0  0  0  0  0  0  0
    4.9304   -1.4782    0.0000 H   0  0  0  0  0  0  0  0  0  0  0  0
    6.9282    0.8000    0.0000 C   0  0  0  0  0  0  0  0  0  0  0  0
    6.3159    2.2782    0.0000 H   0  0  0  0  0  0  0  0  0  0  0  0
    7.5405    2.2782    0.0000 H   0  0  0  0  0  0  0  0  0  0  0  0
    8.3139   -0.0000    0.0000 C   0  0  0  0  0  0  0  0  0  0  0  0
    9.6995   -0.8000    0.0000 H   0  0  0  0  0  0  0  0  0  0  0  0
    9.6995    0.8000    0.0000 H   0  0  0  0  0  0  0  0  0  0  0  0
    8.3139   -1.6000    0.0000 H   0  0  0  0  0  0  0  0  0  0  0  0
    1.3856    0.8000    0.0000 C   0  0  0  0  0  0  0  0  0  0  0  0
    0.7733    2.2782    0.0000 H   0  0  0  0  0  0  0  0  0  0  0  0
    1.9980    2.2782    0.0000 H   0  0  0  0  0  0  0  0  0  0  0  0
   -0.0001   -0.0000    0.0000 C   0  0  0  0  0  0  0  0  0  0  0  0
    0.6122   -1.4782    0.0000 H   0  0  0  0  0  0  0  0  0  0  0  0
   -0.6122   -1.4782    0.0000 H   0  0  0  0  0  0  0  0  0  0  0  0
   -1.3856    0.8000    0.0000 C   0  0  0  0  0  0  0  0  0  0  0  0
   -1.9980    2.2782    0.0000 H   0  0  0  0  0  0  0  0  0  0  0  0
   -0.7733    2.2782    0.0000 H   0  0  0  0  0  0  0  0  0  0  0  0
   -2.7714   -0.0000    0.0000 C   0  0  0  0  0  0  0  0  0  0  0  0
   -4.1569   -0.8000    0.0000 H   0  0  0  0  0  0  0  0  0  0  0  0
   -4.1569    0.8000    0.0000 H   0  0  0  0  0  0  0  0  0  0  0  0
   -2.7714   -1.6000    0.0000 H   0  0  0  0  0  0  0  0  0  0  0  0
    2.7712   -1.6000    0.0000 Cl  0  0  0  0  0  0  0  0  0  0  0  0
  1  2  1  0  0  0  0
  2  3  1  0  0  0  0
  2  4  1  0  0  0  0
  2  5  1  0  0  0  0
  5  6  1  0  0  0  0
  5  7  1  0  0  0  0
  5  8  1  0  0  0  0
  8  9  1  0  0  0  0
  8 10  1  0  0  0  0
  8 11  1  0  0  0  0
 11 12  1  0  0  0  0
 11 13  1  0  0  0  0
 11 14  1  0  0  0  0
  1 15  1  0  0  0  0
 15 16  1  0  0  0  0
 15 17  1  0  0  0  0
 15 18  1  0  0  0  0
 18 19  1  0  0  0  0
 18 20  1  0  0  0  0
 18 21  1  0  0  0  0
 21 22  1  0  0  0  0
 21 23  1  0  0  0  0
 21 24  1  0  0  0  0
 24 25  1  0  0  0  0
 24 26  1  0  0  0  0
 24 27  1  0  0  0  0
  1 28  1  0  0  0  0
M  END
> <ChemID>
103989

> <source_casrn>
1730-69-4

> <CAS>
NOCAS_870906

> <SMILES>
CCCCB(Cl)CCCC

> <NAME>
DI-n-BUTYLCHLOROBORANE

> <preferred_name>


> <iupac>


> <MPID>
22914

> <dsstox_substance_id>
DTXSID40870906

> <Canonical_QSARr>
CCCCB(Cl)CCCC

> <InChI_Code_QSARr>
InChI=1S/C8H18BCl/c1-3-5-7-9(10)8-6-4-2/h3-8H2,1-2H3

> <InChI Key_QSARr>
INVPQTFQRFNBFL-UHFFFAOYSA-N

> <Salt_Solvent>
?

> <BP>
173.0

$$$$
103993
  -INDIGO-08031720192D

 10  9  0  0  0  0  0  0  0  0999 V2000
   -2.7713    1.6000    0.0000 N   0  0  0  0  0  0  0  0  0  0  0  0
   -1.3856    0.8000    0.0000 C   0  0  0  0  0  0  0  0  0  0  0  0
    0.0000    0.0000    0.0000 C   0  0  0  0  0  0  0  0  0  0  0  0
    0.6123   -1.4782    0.0000 H   0  0  0  0  0  0  0  0  0  0  0  0
   -0.6123   -1.4782    0.0000 H   0  0  0  0  0  0  0  0  0  0  0  0
    1.3856    0.8000    0.0000 O   0  0  0  0  0  0  0  0  0  0  0  0
    2.7713    0.0000    0.0000 C   0  0  0  0  0  0  0  0  0  0  0  0
    4.1569   -0.8000    0.0000 H   0  0  0  0  0  0  0  0  0  0  0  0
    4.1569    0.8000    0.0000 H   0  0  0  0  0  0  0  0  0  0  0  0
    2.7713   -1.6000    0.0000 H   0  0  0  0  0  0  0  0  0  0  0  0
  1  2  3  0  0  0  0
  2  3  1  0  0  0  0
  3  4  1  0  0  0  0
  3  5  1  0  0  0  0
  3  6  1  0  0  0  0
  6  7  1  0  0  0  0
  7  8  1  0  0  0  0
  7  9  1  0  0  0  0
  7 10  1  0  0  0  0
M  END
> <ChemID>
103993

> <source_casrn>
1738-36-9

> <CAS>
1738-36-9

> <SMILES>
COCC#N

> <NAME>
Acetonitrile, methoxy-

> <preferred_name>
Acetonitrile, methoxy-

> <iupac>
2-methoxyacetonitrile

> <MPID>
22918

> <dsstox_substance_id>
DTXSID2061937

> <Canonical_QSARr>
COCC#N

> <InChI_Code_QSARr>
InChI=1S/C3H5NO/c1-5-3-2-4/h3H2,1H3

> <InChI Key_QSARr>
QKPVEISEHYYHRH-UHFFFAOYSA-N

> <Salt_Solvent>
?

> <BP>
119.0

$$$$
103997
  -INDIGO-08031720192D

 20 20  0  0  0  0  0  0  0  0999 V2000
    4.1569    0.8000    0.0000 C   0  0  0  0  0  0  0  0  0  0  0  0
    5.5426   -0.0000    0.0000 H   0  0  0  0  0  0  0  0  0  0  0  0
    4.1569    2.4000    0.0000 H   0  0  0  0  0  0  0  0  0  0  0  0
    2.7713   -0.0000    0.0000 C   0  0  0  0  0  0  0  0  0  0  0  0
    2.7713   -1.6000    0.0000 H   0  0  0  0  0  0  0  0  0  0  0  0
    1.3857    0.8000    0.0000 C   0  0  0  0  0  0  0  0  0  0  0  0
    1.9980    2.2782    0.0000 H   0  0  0  0  0  0  0  0  0  0  0  0
    0.7734    2.2782    0.0000 H   0  0  0  0  0  0  0  0  0  0  0  0
   -0.0001   -0.0000    0.0000 C   0  0  0  0  0  0  0  0  0  0  0  0
   -0.0001   -1.6000    0.0000 C   0  0  0  0  0  0  0  0  0  0  0  0
    1.3857   -2.4000    0.0000 H   0  0  0  0  0  0  0  0  0  0  0  0
   -1.3857   -2.4000    0.0000 C   0  0  0  0  0  0  0  0  0  0  0  0
   -1.3857   -4.0000    0.0000 H   0  0  0  0  0  0  0  0  0  0  0  0
   -2.7713   -1.6000    0.0000 C   0  0  0  0  0  0  0  0  0  0  0  0
   -4.1569   -2.4000    0.0000 H   0  0  0  0  0  0  0  0  0  0  0  0
   -2.7713   -0.0000    0.0000 C   0  0  0  0  0  0  0  0  0  0  0  0
   -4.1569    0.8000    0.0000 H   0  0  0  0  0  0  0  0  0  0  0  0
   -1.3857    0.8000    0.0000 C   0  0  0  0  0  0  0  0  0  0  0  0
   -1.3857    2.4000    0.0000 O   0  0  0  0  0  0  0  0  0  0  0  0
   -2.7713    3.2000    0.0000 H   0  0  0  0  0  0  0  0  0  0  0  0
  1  2  1  0  0  0  0
  1  3  1  0  0  0  0
  1  4  2  0  0  0  0
  4  5  1  0  0  0  0
  4  6  1  0  0  0  0
  6  7  1  0  0  0  0
  6  8  1  0  0  0  0
  6  9  1  0  0  0  0
  9 10  1  0  0  0  0
 10 11  1  0  0  0  0
 10 12  2  0  0  0  0
 12 13  1  0  0  0  0
 12 14  1  0  0  0  0
 14 15  1  0  0  0  0
 14 16  2  0  0  0  0
 16 17  1  0  0  0  0
 16 18  1  0  0  0  0
 18  9  2  0  0  0  0
 18 19  1  0  0  0  0
 19 20  1  0  0  0  0
M  END
> <ChemID>
103997

> <source_casrn>
1745-81-9

> <CAS>
1745-81-9

> <SMILES>
C=CCc1ccccc1O

> <NAME>
Phenol, 2-(2-propenyl)-

> <preferred_name>
2-Allylphenol

> <iupac>
2-(prop-2-en-1-yl)phenol

> <MPID>
22922

> <dsstox_substance_id>
DTXSID3022164

> <Canonical_QSARr>
C=CCc1ccccc1O

> <InChI_Code_QSARr>
InChI=1S/C9H10O/c1-2-5-8-6-3-4-7-9(8)10/h2-4,6-7,10H,1,5H2

> <InChI Key_QSARr>
QIRNGVVZBINFMX-UHFFFAOYSA-N

> <Salt_Solvent>
?

> <BP>
220.0

$$$$
104001
  -INDIGO-08031720192D

 22 23  0  0  0  0  0  0  0  0999 V2000
    0.0000   -0.0000    0.0000 C   0  0  0  0  0  0  0  0  0  0  0  0
    0.3326    1.5650    0.0000 H   0  0  0  0  0  0  0  0  0  0  0  0
    1.5912    0.1673    0.0000 C   0  0  0  0  0  0  0  0  0  0  0  0
    1.5354    1.7663    0.0000 H   0  0  0  0  0  0  0  0  0  0  0  0
    3.1129    0.6617    0.0000 H   0  0  0  0  0  0  0  0  0  0  0  0
    2.2421   -1.2945    0.0000 C   0  0  0  0  0  0  0  0  0  0  0  0
    3.6277   -0.4944    0.0000 H   0  0  0  0  0  0  0  0  0  0  0  0
    3.1825   -2.5889    0.0000 H   0  0  0  0  0  0  0  0  0  0  0  0
    1.0529   -2.3651    0.0000 C   0  0  0  0  0  0  0  0  0  0  0  0
    2.2421   -3.4357    0.0000 H   0  0  0  0  0  0  0  0  0  0  0  0
    0.3516   -3.8031    0.0000 H   0  0  0  0  0  0  0  0  0  0  0  0
   -0.3327   -1.5650    0.0000 C   0  0  0  0  0  0  0  0  0  0  0  0
   -0.6653   -3.1301    0.0000 H   0  0  0  0  0  0  0  0  0  0  0  0
   -1.9239   -1.7323    0.0000 C   0  0  0  0  0  0  0  0  0  0  0  0
   -1.8681   -3.3313    0.0000 H   0  0  0  0  0  0  0  0  0  0  0  0
   -3.4455   -2.2267    0.0000 H   0  0  0  0  0  0  0  0  0  0  0  0
   -2.5747   -0.2706    0.0000 C   0  0  0  0  0  0  0  0  0  0  0  0
   -3.9603   -1.0706    0.0000 H   0  0  0  0  0  0  0  0  0  0  0  0
   -3.5151    1.0238    0.0000 H   0  0  0  0  0  0  0  0  0  0  0  0
   -1.3856    0.8000    0.0000 C   0  0  0  0  0  0  0  0  0  0  0  0
   -2.5747    1.8706    0.0000 H   0  0  0  0  0  0  0  0  0  0  0  0
   -0.6843    2.2381    0.0000 H   0  0  0  0  0  0  0  0  0  0  0  0
  1  2  1  0  0  0  0
  1  3  1  0  0  0  0
  3  4  1  0  0  0  0
  3  5  1  0  0  0  0
  3  6  1  0  0  0  0
  6  7  1  0  0  0  0
  6  8  1  0  0  0  0
  6  9  1  0  0  0  0
  9 10  1  0  0  0  0
  9 11  1  0  0  0  0
  9 12  1  0  0  0  0
 12  1  1  0  0  0  0
 12 13  1  0  0  0  0
 12 14  1  0  0  0  0
 14 15  1  0  0  0  0
 14 16  1  0  0  0  0
 14 17  1  0  0  0  0
 17 18  1  0  0  0  0
 17 19  1  0  0  0  0
 17 20  1  0  0  0  0
 20  1  1  0  0  0  0
 20 21  1  0  0  0  0
 20 22  1  0  0  0  0
M  END
> <ChemID>
104001

> <source_casrn>
1755-05-1

> <CAS>
694-72-4

> <SMILES>
C1CCC2CCCC21

> <NAME>
PENTALENE, OCTAHYDRO-, CIS-

> <preferred_name>
Pentalene, octahydro-

> <iupac>
1,2,3,3a,4,5,6,6a-octahydropentalene

> <MPID>
22926

> <dsstox_substance_id>
DTXSID7075054

> <Canonical_QSARr>
C1CCC2CCCC21

> <InChI_Code_QSARr>
InChI=1S/C8H14/c1-3-7-5-2-6-8(7)4-1/h7-8H,1-6H2

> <InChI Key_QSARr>
AEBWATHAIVJLTA-UHFFFAOYSA-N

> <Salt_Solvent>
?

> <BP>
139.0

$$$$
104006
  -INDIGO-08031720192D

 16 16  0  0  0  0  0  0  0  0999 V2000
    0.0000   -0.0000    0.0000 C   0  0  0  0  0  0  0  0  0  0  0  0
    0.6508   -1.4617    0.0000 H   0  0  0  0  0  0  0  0  0  0  0  0
   -0.3326    1.5650    0.0000 C   0  0  0  0  0  0  0  0  0  0  0  0
    1.2586    1.7323    0.0000 H   0  0  0  0  0  0  0  0  0  0  0  0
   -0.3326    3.1650    0.0000 H   0  0  0  0  0  0  0  0  0  0  0  0
   -1.9239    1.7323    0.0000 C   0  0  0  0  0  0  0  0  0  0  0  0
   -2.7239    3.1179    0.0000 H   0  0  0  0  0  0  0  0  0  0  0  0
   -2.5746    0.2706    0.0000 C   0  0  0  0  0  0  0  0  0  0  0  0
   -4.1397   -0.0621    0.0000 H   0  0  0  0  0  0  0  0  0  0  0  0
   -1.3857   -0.8000    0.0000 C   0  0  0  0  0  0  0  0  0  0  0  0
   -2.5746   -1.8706    0.0000 H   0  0  0  0  0  0  0  0  0  0  0  0
   -0.4451   -2.0944    0.0000 H   0  0  0  0  0  0  0  0  0  0  0  0
    1.5990   -0.0558    0.0000 C   0  0  0  0  0  0  0  0  0  0  0  0
    3.1981   -0.1117    0.0000 H   0  0  0  0  0  0  0  0  0  0  0  0
    2.4469    1.3011    0.0000 H   0  0  0  0  0  0  0  0  0  0  0  0
    2.3501   -1.4685    0.0000 H   0  0  0  0  0  0  0  0  0  0  0  0
  1  2  1  0  0  0  0
  1  3  1  0  0  0  0
  3  4  1  0  0  0  0
  3  5  1  0  0  0  0
  3  6  1  0  0  0  0
  6  7  1  0  0  0  0
  6  8  2  0  0  0  0
  8  9  1  0  0  0  0
  8 10  1  0  0  0  0
 10  1  1  0  0  0  0
 10 11  1  0  0  0  0
 10 12  1  0  0  0  0
  1 13  1  0  0  0  0
 13 14  1  0  0  0  0
 13 15  1  0  0  0  0
 13 16  1  0  0  0  0
M  END
> <ChemID>
104006

> <source_casrn>
1759-81-5

> <CAS>
1759-81-5

> <SMILES>
CC1CC=CC1

> <NAME>
CYCLOPENTENE, 4-METHYL-

> <preferred_name>
Cyclopentene, 4-methyl-

> <iupac>
4-METHYLCYCLOPENTENE

> <MPID>
22930

> <dsstox_substance_id>
DTXSID30170043

> <Canonical_QSARr>
CC1CC=CC1

> <InChI_Code_QSARr>
InChI=1S/C6H10/c1-6-4-2-3-5-6/h2-3,6H,4-5H2,1H3

> <InChI Key_QSARr>
FWMRUAODTCVEQK-UHFFFAOYSA-N

> <Salt_Solvent>
?

> <BP>
65.7

$$$$
104010
  -INDIGO-08031720192D

 23 23  0  0  0  0  0  0  0  0999 V2000
    1.3857   -0.7999    0.0000 C   0  0  0  0  0  0  0  0  0  0  0  0
    1.3857   -2.3999    0.0000 H   0  0  0  0  0  0  0  0  0  0  0  0
    2.7712    0.0000    0.0000 N   0  0  0  0  0  0  0  0  0  0  0  0
    4.1569   -0.7999    0.0000 C   0  0  0  0  0  0  0  0  0  0  0  0
    4.1569   -2.4001    0.0000 C   0  0  0  0  0  0  0  0  0  0  0  0
    2.7712   -3.2000    0.0000 H   0  0  0  0  0  0  0  0  0  0  0  0
    5.5425   -3.2000    0.0000 C   0  0  0  0  0  0  0  0  0  0  0  0
    5.5425   -4.8000    0.0000 H   0  0  0  0  0  0  0  0  0  0  0  0
    6.9282   -2.3999    0.0000 C   0  0  0  0  0  0  0  0  0  0  0  0
    8.3138   -3.2000    0.0000 H   0  0  0  0  0  0  0  0  0  0  0  0
    6.9282   -0.7999    0.0000 C   0  0  0  0  0  0  0  0  0  0  0  0
    8.3138    0.0000    0.0000 H   0  0  0  0  0  0  0  0  0  0  0  0
    5.5425    0.0000    0.0000 C   0  0  0  0  0  0  0  0  0  0  0  0
    5.5425    1.6000    0.0000 H   0  0  0  0  0  0  0  0  0  0  0  0
    0.0000    0.0000    0.0000 N   0  0  0  0  0  0  0  0  0  0  0  0
   -1.3856   -0.7999    0.0000 C   0  0  0  0  0  0  0  0  0  0  0  0
   -2.7713   -1.6000    0.0000 H   0  0  0  0  0  0  0  0  0  0  0  0
   -2.7713    0.0000    0.0000 H   0  0  0  0  0  0  0  0  0  0  0  0
   -1.3856   -2.3999    0.0000 H   0  0  0  0  0  0  0  0  0  0  0  0
    0.0000    1.6000    0.0000 C   0  0  0  0  0  0  0  0  0  0  0  0
    0.0000    3.2000    0.0000 H   0  0  0  0  0  0  0  0  0  0  0  0
   -1.3856    2.4001    0.0000 H   0  0  0  0  0  0  0  0  0  0  0  0
    1.3857    2.4001    0.0000 H   0  0  0  0  0  0  0  0  0  0  0  0
  1  2  1  0  0  0  0
  1  3  2  0  0  0  0
  3  4  1  0  0  0  0
  4  5  1  0  0  0  0
  5  6  1  0  0  0  0
  5  7  2  0  0  0  0
  7  8  1  0  0  0  0
  7  9  1  0  0  0  0
  9 10  1  0  0  0  0
  9 11  2  0  0  0  0
 11 12  1  0  0  0  0
 11 13  1  0  0  0  0
 13  4  2  0  0  0  0
 13 14  1  0  0  0  0
  1 15  1  0  0  0  0
 15 16  1  0  0  0  0
 16 17  1  0  0  0  0
 16 18  1  0  0  0  0
 16 19  1  0  0  0  0
 15 20  1  0  0  0  0
 20 21  1  0  0  0  0
 20 22  1  0  0  0  0
 20 23  1  0  0  0  0
M  END
> <ChemID>
104010

> <source_casrn>
1783-25-1

> <CAS>
NOCAS_862752

> <SMILES>
CN(C)C=Nc1ccccc1

> <NAME>
Formamidine, N,N-dimethyl-N'-phenyl-

> <preferred_name>


> <iupac>


> <MPID>
22934

> <dsstox_substance_id>
DTXSID10862752

> <Canonical_QSARr>
CN(C)C=Nc1ccccc1

> <InChI_Code_QSARr>
InChI=1S/C9H12N2/c1-11(2)8-10-9-6-4-3-5-7-9/h3-8H,1-2H3/b10-8+

> <InChI Key_QSARr>
SRPCLECGIYMIMN-CSKARUKUSA-N

> <Salt_Solvent>
?

> <BP>
127.0

$$$$
104014
  -INDIGO-08031720192D

 18 18  0  0  0  0  0  0  0  0999 V2000
    0.0000    0.0000    0.0000 C   0  0  0  0  0  0  0  0  0  0  0  0
    1.5650   -0.3327    0.0000 C   0  0  0  0  0  0  0  0  0  0  0  0
    2.7540    0.7379    0.0000 C   0  0  0  0  0  0  0  0  0  0  0  0
    3.9431    1.8085    0.0000 H   0  0  0  0  0  0  0  0  0  0  0  0
    4.2758    0.2436    0.0000 H   0  0  0  0  0  0  0  0  0  0  0  0
    2.4214    2.3030    0.0000 H   0  0  0  0  0  0  0  0  0  0  0  0
    1.7323   -1.9239    0.0000 C   0  0  0  0  0  0  0  0  0  0  0  0
    3.1180   -2.7239    0.0000 H   0  0  0  0  0  0  0  0  0  0  0  0
    0.2706   -2.5747    0.0000 S   0  0  0  0  0  0  0  0  0  0  0  0
   -0.8000   -1.3856    0.0000 C   0  0  0  0  0  0  0  0  0  0  0  0
   -2.3912   -1.5529    0.0000 C   0  0  0  0  0  0  0  0  0  0  0  0
   -3.9825   -1.7202    0.0000 H   0  0  0  0  0  0  0  0  0  0  0  0
   -3.0420   -3.0146    0.0000 H   0  0  0  0  0  0  0  0  0  0  0  0
   -3.3317   -0.2585    0.0000 H   0  0  0  0  0  0  0  0  0  0  0  0
   -0.6508    1.4617    0.0000 C   0  0  0  0  0  0  0  0  0  0  0  0
   -1.3016    2.9233    0.0000 H   0  0  0  0  0  0  0  0  0  0  0  0
   -2.2420    1.6289    0.0000 H   0  0  0  0  0  0  0  0  0  0  0  0
    0.2897    2.7561    0.0000 H   0  0  0  0  0  0  0  0  0  0  0  0
  1  2  1  0  0  0  0
  2  3  1  0  0  0  0
  3  4  1  0  0  0  0
  3  5  1  0  0  0  0
  3  6  1  0  0  0  0
  2  7  2  0  0  0  0
  7  8  1  0  0  0  0
  7  9  1  0  0  0  0
  9 10  1  0  0  0  0
 10  1  2  0  0  0  0
 10 11  1  0  0  0  0
 11 12  1  0  0  0  0
 11 13  1  0  0  0  0
 11 14  1  0  0  0  0
  1 15  1  0  0  0  0
 15 16  1  0  0  0  0
 15 17  1  0  0  0  0
 15 18  1  0  0  0  0
M  END
> <ChemID>
104014

> <source_casrn>
1795-04-6

> <CAS>
1795-04-6

> <SMILES>
Cc1c(C)c[s]c1C

> <NAME>
THIOPHENE, 2,3,4-TRIMETHYL-

> <preferred_name>
Thiophene, 2,3,4-trimethyl-

> <iupac>
2,3,4-TRIMETHYLTHIOPHENE

> <MPID>
22938

> <dsstox_substance_id>
DTXSID2073277

> <Canonical_QSARr>
Cc1c(C)c[s]c1C

> <InChI_Code_QSARr>
InChI=1S/C7H10S/c1-5-4-8-7(3)6(5)2/h4H,1-3H3

> <InChI Key_QSARr>
MAVVDCDMBKFUES-UHFFFAOYSA-N

> <Salt_Solvent>
?

> <BP>
162.0

$$$$
104018
  -INDIGO-08031720192D

 48 48  0  0  0  0  0  0  0  0999 V2000
    0.0001    0.0001    0.0000 C   0  0  0  0  0  0  0  0  0  0  0  0
    1.2257    1.0284    0.0000 H   0  0  0  0  0  0  0  0  0  0  0  0
    1.2257   -1.0284    0.0000 C   0  0  0  0  0  0  0  0  0  0  0  0
    1.5719   -2.5905    0.0000 H   0  0  0  0  0  0  0  0  0  0  0  0
    0.3660   -2.3779    0.0000 H   0  0  0  0  0  0  0  0  0  0  0  0
    2.7293   -0.4813    0.0000 C   0  0  0  0  0  0  0  0  0  0  0  0
    2.3828    1.0808    0.0000 H   0  0  0  0  0  0  0  0  0  0  0  0
    3.5890    0.8682    0.0000 H   0  0  0  0  0  0  0  0  0  0  0  0
    3.9549   -1.5097    0.0000 C   0  0  0  0  0  0  0  0  0  0  0  0
    4.3010   -3.0718    0.0000 H   0  0  0  0  0  0  0  0  0  0  0  0
    3.0952   -2.8591    0.0000 H   0  0  0  0  0  0  0  0  0  0  0  0
    5.4585   -0.9625    0.0000 C   0  0  0  0  0  0  0  0  0  0  0  0
    5.1120    0.5996    0.0000 H   0  0  0  0  0  0  0  0  0  0  0  0
    6.3181    0.3869    0.0000 H   0  0  0  0  0  0  0  0  0  0  0  0
    6.6840   -1.9909    0.0000 C   0  0  0  0  0  0  0  0  0  0  0  0
    7.0302   -3.5530    0.0000 H   0  0  0  0  0  0  0  0  0  0  0  0
    5.8244   -3.3403    0.0000 H   0  0  0  0  0  0  0  0  0  0  0  0
    8.1877   -1.4437    0.0000 C   0  0  0  0  0  0  0  0  0  0  0  0
    7.8412    0.1184    0.0000 H   0  0  0  0  0  0  0  0  0  0  0  0
    9.0473   -0.0943    0.0000 H   0  0  0  0  0  0  0  0  0  0  0  0
    9.4132   -2.4721    0.0000 C   0  0  0  0  0  0  0  0  0  0  0  0
    9.7594   -4.0342    0.0000 H   0  0  0  0  0  0  0  0  0  0  0  0
    8.5536   -3.8216    0.0000 H   0  0  0  0  0  0  0  0  0  0  0  0
   10.9166   -1.9250    0.0000 C   0  0  0  0  0  0  0  0  0  0  0  0
   10.5704   -0.3629    0.0000 H   0  0  0  0  0  0  0  0  0  0  0  0
   11.7765   -0.5755    0.0000 H   0  0  0  0  0  0  0  0  0  0  0  0
   12.1424   -2.9533    0.0000 C   0  0  0  0  0  0  0  0  0  0  0  0
   12.4886   -4.5154    0.0000 H   0  0  0  0  0  0  0  0  0  0  0  0
   11.2828   -4.3028    0.0000 H   0  0  0  0  0  0  0  0  0  0  0  0
   13.6458   -2.4062    0.0000 C   0  0  0  0  0  0  0  0  0  0  0  0
   15.1494   -1.8589    0.0000 H   0  0  0  0  0  0  0  0  0  0  0  0
   14.8716   -3.4346    0.0000 H   0  0  0  0  0  0  0  0  0  0  0  0
   13.9239   -0.8304    0.0000 H   0  0  0  0  0  0  0  0  0  0  0  0
   -0.8001    1.3857    0.0000 C   0  0  0  0  0  0  0  0  0  0  0  0
    0.7035    1.9328    0.0000 H   0  0  0  0  0  0  0  0  0  0  0  0
   -1.0779    2.9613    0.0000 H   0  0  0  0  0  0  0  0  0  0  0  0
   -2.3999    1.3857    0.0000 C   0  0  0  0  0  0  0  0  0  0  0  0
   -2.1221    2.9613    0.0000 H   0  0  0  0  0  0  0  0  0  0  0  0
   -3.9036    1.9328    0.0000 H   0  0  0  0  0  0  0  0  0  0  0  0
   -3.2001    0.0001    0.0000 C   0  0  0  0  0  0  0  0  0  0  0  0
   -4.4257    1.0284    0.0000 H   0  0  0  0  0  0  0  0  0  0  0  0
   -4.4257   -1.0284    0.0000 H   0  0  0  0  0  0  0  0  0  0  0  0
   -2.3999   -1.3857    0.0000 C   0  0  0  0  0  0  0  0  0  0  0  0
   -3.9036   -1.9328    0.0000 H   0  0  0  0  0  0  0  0  0  0  0  0
   -2.1221   -2.9613    0.0000 H   0  0  0  0  0  0  0  0  0  0  0  0
   -0.8001   -1.3857    0.0000 C   0  0  0  0  0  0  0  0  0  0  0  0
   -1.0779   -2.9613    0.0000 H   0  0  0  0  0  0  0  0  0  0  0  0
    0.7758   -1.6635    0.0000 H   0  0  0  0  0  0  0  0  0  0  0  0
  1  2  1  0  0  0  0
  1  3  1  0  0  0  0
  3  4  1  0  0  0  0
  3  5  1  0  0  0  0
  3  6  1  0  0  0  0
  6  7  1  0  0  0  0
  6  8  1  0  0  0  0
  6  9  1  0  0  0  0
  9 10  1  0  0  0  0
  9 11  1  0  0  0  0
  9 12  1  0  0  0  0
 12 13  1  0  0  0  0
 12 14  1  0  0  0  0
 12 15  1  0  0  0  0
 15 16  1  0  0  0  0
 15 17  1  0  0  0  0
 15 18  1  0  0  0  0
 18 19  1  0  0  0  0
 18 20  1  0  0  0  0
 18 21  1  0  0  0  0
 21 22  1  0  0  0  0
 21 23  1  0  0  0  0
 21 24  1  0  0  0  0
 24 25  1  0  0  0  0
 24 26  1  0  0  0  0
 24 27  1  0  0  0  0
 27 28  1  0  0  0  0
 27 29  1  0  0  0  0
 27 30  1  0  0  0  0
 30 31  1  0  0  0  0
 30 32  1  0  0  0  0
 30 33  1  0  0  0  0
  1 34  1  0  0  0  0
 34 35  1  0  0  0  0
 34 36  1  0  0  0  0
 34 37  1  0  0  0  0
 37 38  1  0  0  0  0
 37 39  1  0  0  0  0
 37 40  1  0  0  0  0
 40 41  1  0  0  0  0
 40 42  1  0  0  0  0
 40 43  1  0  0  0  0
 43 44  1  0  0  0  0
 43 45  1  0  0  0  0
 43 46  1  0  0  0  0
 46  1  1  0  0  0  0
 46 47  1  0  0  0  0
 46 48  1  0  0  0  0
M  END
> <ChemID>
104018

> <source_casrn>
1795-16-0

> <CAS>
1795-16-0

> <SMILES>
CCCCCCCCCCC1CCCCC1

> <NAME>
N-DECYLCYCLOHEXANE

> <preferred_name>
Cyclohexane, decyl-

> <iupac>
Decylcyclohexane

> <MPID>
22942

> <dsstox_substance_id>
DTXSID8061973

> <Canonical_QSARr>
CCCCCCCCCCC1CCCCC1

> <InChI_Code_QSARr>
InChI=1S/C16H32/c1-2-3-4-5-6-7-8-10-13-16-14-11-9-12-15-16/h16H,2-15H2,1H3

> <InChI Key_QSARr>
STWFZICHPLEOIC-UHFFFAOYSA-N

> <Salt_Solvent>
?

> <BP>
299.0

$$$$
104024
  -INDIGO-08031720192D

 13 12  0  0  0  0  0  0  0  0999 V2000
    0.0000    1.6000    0.0000 N   0  0  0  0  0  0  0  0  0  0  0  0
    0.0000    0.0000    0.0000 C   0  0  0  0  0  0  0  0  0  0  0  0
    0.0000   -1.6000    0.0000 H   0  0  0  0  0  0  0  0  0  0  0  0
   -1.6000    0.0000    0.0000 C   0  0  0  0  0  0  0  0  0  0  0  0
   -3.2000    0.0000    0.0000 H   0  0  0  0  0  0  0  0  0  0  0  0
   -2.4000   -1.3856    0.0000 H   0  0  0  0  0  0  0  0  0  0  0  0
   -2.4000    1.3856    0.0000 H   0  0  0  0  0  0  0  0  0  0  0  0
    1.6000    0.0000    0.0000 C   0  0  0  0  0  0  0  0  0  0  0  0
    3.2000    0.0000    0.0000 H   0  0  0  0  0  0  0  0  0  0  0  0
    2.4000   -1.3856    0.0000 H   0  0  0  0  0  0  0  0  0  0  0  0
    2.4000    1.3856    0.0000 H   0  0  0  0  0  0  0  0  0  0  0  0
    1.3856    2.4000    0.0000 C   0  0  0  0  0  0  0  0  0  0  0  0
    2.7713    3.2000    0.0000 O   0  0  0  0  0  0  0  0  0  0  0  0
  1  2  1  0  0  0  0
  2  3  1  0  0  0  0
  2  4  1  0  0  0  0
  4  5  1  0  0  0  0
  4  6  1  0  0  0  0
  4  7  1  0  0  0  0
  2  8  1  0  0  0  0
  8  9  1  0  0  0  0
  8 10  1  0  0  0  0
  8 11  1  0  0  0  0
  1 12  2  0  0  0  0
 12 13  2  0  0  0  0
M  END
> <ChemID>
104024

> <source_casrn>
1795-48-8

> <CAS>
1795-48-8

> <SMILES>
CC(C)N=C=O

> <NAME>
Propane, 2-isocyanato-

> <preferred_name>
Propane, 2-isocyanato-

> <iupac>
2-isocyanatopropane

> <MPID>
22946

> <dsstox_substance_id>
DTXSID3061976

> <Canonical_QSARr>
CC(C)N=C=O

> <InChI_Code_QSARr>
InChI=1S/C4H7NO/c1-4(2)5-3-6/h4H,1-2H3

> <InChI Key_QSARr>
GSLTVFIVJMCNBH-UHFFFAOYSA-N

> <Salt_Solvent>
?

> <BP>
74.5

$$$$
104028
  -INDIGO-08031720192D

 17 16  0  0  0  0  0  0  0  0999 V2000
    0.0001   -0.0000    0.0000 C   0  0  0  0  0  0  0  0  0  0  0  0
    0.6123   -1.4782    0.0000 H   0  0  0  0  0  0  0  0  0  0  0  0
   -1.3856    0.8000    0.0000 C   0  0  0  0  0  0  0  0  0  0  0  0
   -1.9979    2.2782    0.0000 H   0  0  0  0  0  0  0  0  0  0  0  0
   -0.7734    2.2782    0.0000 H   0  0  0  0  0  0  0  0  0  0  0  0
   -2.7713   -0.0000    0.0000 C   0  0  0  0  0  0  0  0  0  0  0  0
   -4.1569   -0.8000    0.0000 H   0  0  0  0  0  0  0  0  0  0  0  0
   -4.1569    0.8000    0.0000 H   0  0  0  0  0  0  0  0  0  0  0  0
   -2.7713   -1.6000    0.0000 H   0  0  0  0  0  0  0  0  0  0  0  0
    1.3856    0.8000    0.0000 C   0  0  0  0  0  0  0  0  0  0  0  0
    0.7734    2.2782    0.0000 H   0  0  0  0  0  0  0  0  0  0  0  0
    1.9979    2.2782    0.0000 H   0  0  0  0  0  0  0  0  0  0  0  0
    2.7713   -0.0000    0.0000 C   0  0  0  0  0  0  0  0  0  0  0  0
    4.1569   -0.8000    0.0000 H   0  0  0  0  0  0  0  0  0  0  0  0
    4.1569    0.8000    0.0000 H   0  0  0  0  0  0  0  0  0  0  0  0
    2.7713   -1.6000    0.0000 H   0  0  0  0  0  0  0  0  0  0  0  0
   -0.6123   -1.4782    0.0000 Br  0  0  0  0  0  0  0  0  0  0  0  0
  1  2  1  0  0  0  0
  1  3  1  0  0  0  0
  3  4  1  0  0  0  0
  3  5  1  0  0  0  0
  3  6  1  0  0  0  0
  6  7  1  0  0  0  0
  6  8  1  0  0  0  0
  6  9  1  0  0  0  0
  1 10  1  0  0  0  0
 10 11  1  0  0  0  0
 10 12  1  0  0  0  0
 10 13  1  0  0  0  0
 13 14  1  0  0  0  0
 13 15  1  0  0  0  0
 13 16  1  0  0  0  0
  1 17  1  0  0  0  0
M  END
> <ChemID>
104028

> <source_casrn>
1809-10-5

> <CAS>
1809-10-5

> <SMILES>
CCC(Br)CC

> <NAME>
Pentane, 3-bromo-

> <preferred_name>
Pentane, 3-bromo-

> <iupac>
3-BROMOPENTANE

> <MPID>
22950

> <dsstox_substance_id>
DTXSID2061987

> <Canonical_QSARr>
CCC(Br)CC

> <InChI_Code_QSARr>
InChI=1S/C5H11Br/c1-3-5(6)4-2/h5H,3-4H2,1-2H3

> <InChI Key_QSARr>
VTOQFOCYBTVOJZ-UHFFFAOYSA-N

> <Salt_Solvent>
?

> <BP>
118.6

$$$$
104032
  -INDIGO-08031720192D

 16 15  0  0  0  0  0  0  0  0999 V2000
    1.3857    0.8000    0.0000 C   0  0  0  0  0  0  0  0  0  0  0  0
    2.7713    1.6000    0.0000 H   0  0  0  0  0  0  0  0  0  0  0  0
    2.7713    0.0000    0.0000 H   0  0  0  0  0  0  0  0  0  0  0  0
    1.3857    2.4000    0.0000 H   0  0  0  0  0  0  0  0  0  0  0  0
    0.0000    0.0000    0.0000 C   0  0  0  0  0  0  0  0  0  0  0  0
   -0.6123   -1.4782    0.0000 H   0  0  0  0  0  0  0  0  0  0  0  0
    0.6123   -1.4782    0.0000 H   0  0  0  0  0  0  0  0  0  0  0  0
   -1.3856    0.8000    0.0000 C   0  0  0  0  0  0  0  0  0  0  0  0
   -0.7733    2.2782    0.0000 H   0  0  0  0  0  0  0  0  0  0  0  0
   -1.9979    2.2782    0.0000 H   0  0  0  0  0  0  0  0  0  0  0  0
   -2.7713    0.0000    0.0000 C   0  0  0  0  0  0  0  0  0  0  0  0
   -4.1570    0.8000    0.0000 C   0  0  0  0  0  0  0  0  0  0  0  0
   -5.5426    0.0000    0.0000 O   0  0  0  0  0  0  0  0  0  0  0  0
   -6.9282    0.8000    0.0000 H   0  0  0  0  0  0  0  0  0  0  0  0
   -4.1570    2.4000    0.0000 O   0  0  0  0  0  0  0  0  0  0  0  0
   -2.7713   -1.6000    0.0000 O   0  0  0  0  0  0  0  0  0  0  0  0
  1  2  1  0  0  0  0
  1  3  1  0  0  0  0
  1  4  1  0  0  0  0
  1  5  1  0  0  0  0
  5  6  1  0  0  0  0
  5  7  1  0  0  0  0
  5  8  1  0  0  0  0
  8  9  1  0  0  0  0
  8 10  1  0  0  0  0
  8 11  1  0  0  0  0
 11 12  1  0  0  0  0
 12 13  1  0  0  0  0
 13 14  1  0  0  0  0
 12 15  2  0  0  0  0
 11 16  2  0  0  0  0
M  END
> <ChemID>
104032

> <source_casrn>
1821-02-9

> <CAS>
1821-02-9

> <SMILES>
CCCC(=O)C(O)=O

> <NAME>
2-Oxo-pentanoic acid

> <preferred_name>
2-Oxopentanoic acid

> <iupac>
2-oxopentanoic acid

> <MPID>
22954

> <dsstox_substance_id>
DTXSID3021647

> <Canonical_QSARr>
CCCC(=O)C(O)=O

> <InChI_Code_QSARr>
InChI=1S/C5H8O3/c1-2-3-4(6)5(7)8/h2-3H2,1H3,(H,7,8)

> <InChI Key_QSARr>
KDVFRMMRZOCFLS-UHFFFAOYSA-N

> <Salt_Solvent>
?

> <BP>
179.0

$$$$
104036
  -INDIGO-08031720192D

 19 19  0  0  0  0  0  0  0  0999 V2000
   -1.5999    0.0000    0.0000 C   0  0  0  0  0  0  0  0  0  0  0  0
   -2.4000    1.3856    0.0000 C   0  0  0  0  0  0  0  0  0  0  0  0
   -1.5999    2.7713    0.0000 H   0  0  0  0  0  0  0  0  0  0  0  0
   -4.0000    1.3856    0.0000 C   0  0  0  0  0  0  0  0  0  0  0  0
   -4.8001    2.7713    0.0000 H   0  0  0  0  0  0  0  0  0  0  0  0
   -4.8001    0.0000    0.0000 C   0  0  0  0  0  0  0  0  0  0  0  0
   -6.4000    0.0000    0.0000 H   0  0  0  0  0  0  0  0  0  0  0  0
   -4.0000   -1.3857    0.0000 C   0  0  0  0  0  0  0  0  0  0  0  0
   -4.8001   -2.7713    0.0000 H   0  0  0  0  0  0  0  0  0  0  0  0
   -2.4000   -1.3857    0.0000 C   0  0  0  0  0  0  0  0  0  0  0  0
   -1.5999   -2.7713    0.0000 H   0  0  0  0  0  0  0  0  0  0  0  0
    0.0000    0.0000    0.0000 C   0  0  0  0  0  0  0  0  0  0  0  0
    0.0000   -1.6000    0.0000 H   0  0  0  0  0  0  0  0  0  0  0  0
    0.0000    1.6000    0.0000 C   0  0  0  0  0  0  0  0  0  0  0  0
    0.0000    3.2000    0.0000 N   0  0  0  0  0  0  0  0  0  0  0  0
    1.6001    0.0000    0.0000 C   0  0  0  0  0  0  0  0  0  0  0  0
    3.2000    0.0000    0.0000 H   0  0  0  0  0  0  0  0  0  0  0  0
    2.4000   -1.3857    0.0000 H   0  0  0  0  0  0  0  0  0  0  0  0
    2.4000    1.3856    0.0000 H   0  0  0  0  0  0  0  0  0  0  0  0
  1  2  1  0  0  0  0
  2  3  1  0  0  0  0
  2  4  2  0  0  0  0
  4  5  1  0  0  0  0
  4  6  1  0  0  0  0
  6  7  1  0  0  0  0
  6  8  2  0  0  0  0
  8  9  1  0  0  0  0
  8 10  1  0  0  0  0
 10  1  2  0  0  0  0
 10 11  1  0  0  0  0
  1 12  1  0  0  0  0
 12 13  1  0  0  0  0
 12 14  1  0  0  0  0
 14 15  3  0  0  0  0
 12 16  1  0  0  0  0
 16 17  1  0  0  0  0
 16 18  1  0  0  0  0
 16 19  1  0  0  0  0
M  END
> <ChemID>
104036

> <source_casrn>
1823-91-2

> <CAS>
NOCAS_870913

> <SMILES>
CC(C#N)c1ccccc1

> <NAME>
Benzeneacetonitrile, .alpha.-methyl-

> <preferred_name>


> <iupac>


> <MPID>
22958

> <dsstox_substance_id>
DTXSID10870913

> <Canonical_QSARr>
CC(C#N)c1ccccc1

> <InChI_Code_QSARr>
InChI=1S/C9H9N/c1-8(7-10)9-5-3-2-4-6-9/h2-6,8H,1H3

> <InChI Key_QSARr>
NVAOLENBKNECGF-UHFFFAOYSA-N

> <Salt_Solvent>
?

> <BP>
231.0

$$$$
104040
  -INDIGO-08031720192D

 24 24  0  0  0  0  0  0  0  0999 V2000
   -1.5035   -1.0527    0.0000 Cl  0  0  0  0  0  0  0  0  0  0  0  0
    0.0000   -1.6000    0.0000 C   0  0  0  0  0  0  0  0  0  0  0  0
    0.2779   -3.1757    0.0000 H   0  0  0  0  0  0  0  0  0  0  0  0
   -1.2257   -2.6285    0.0000 H   0  0  0  0  0  0  0  0  0  0  0  0
    0.0000    0.0000    0.0000 Si  0  0  0  0  0  0  0  0  0  0  0  0
   -1.6001   -0.0000    0.0000 C   0  0  0  0  0  0  0  0  0  0  0  0
   -3.2000   -0.0000    0.0000 H   0  0  0  0  0  0  0  0  0  0  0  0
   -2.6284   -1.2256    0.0000 H   0  0  0  0  0  0  0  0  0  0  0  0
   -2.6284    1.2256    0.0000 H   0  0  0  0  0  0  0  0  0  0  0  0
    0.0000    1.6000    0.0000 C   0  0  0  0  0  0  0  0  0  0  0  0
    0.2779    3.1757    0.0000 H   0  0  0  0  0  0  0  0  0  0  0  0
   -1.2257    2.6285    0.0000 H   0  0  0  0  0  0  0  0  0  0  0  0
   -1.5035    1.0527    0.0000 H   0  0  0  0  0  0  0  0  0  0  0  0
    1.6001    0.0000    0.0000 C   0  0  0  0  0  0  0  0  0  0  0  0
    2.4000    1.3857    0.0000 C   0  0  0  0  0  0  0  0  0  0  0  0
    1.6001    2.7713    0.0000 H   0  0  0  0  0  0  0  0  0  0  0  0
    4.0000    1.3857    0.0000 C   0  0  0  0  0  0  0  0  0  0  0  0
    4.8001    2.7713    0.0000 H   0  0  0  0  0  0  0  0  0  0  0  0
    4.8001    0.0000    0.0000 C   0  0  0  0  0  0  0  0  0  0  0  0
    6.4000    0.0000    0.0000 H   0  0  0  0  0  0  0  0  0  0  0  0
    4.0000   -1.3857    0.0000 C   0  0  0  0  0  0  0  0  0  0  0  0
    4.8001   -2.7713    0.0000 H   0  0  0  0  0  0  0  0  0  0  0  0
    2.4000   -1.3857    0.0000 C   0  0  0  0  0  0  0  0  0  0  0  0
    1.5999   -2.7713    0.0000 H   0  0  0  0  0  0  0  0  0  0  0  0
  1  2  1  0  0  0  0
  2  3  1  0  0  0  0
  2  4  1  0  0  0  0
  2  5  1  0  0  0  0
  5  6  1  0  0  0  0
  6  7  1  0  0  0  0
  6  8  1  0  0  0  0
  6  9  1  0  0  0  0
  5 10  1  0  0  0  0
 10 11  1  0  0  0  0
 10 12  1  0  0  0  0
 10 13  1  0  0  0  0
  5 14  1  0  0  0  0
 14 15  1  0  0  0  0
 15 16  1  0  0  0  0
 15 17  2  0  0  0  0
 17 18  1  0  0  0  0
 17 19  1  0  0  0  0
 19 20  1  0  0  0  0
 19 21  2  0  0  0  0
 21 22  1  0  0  0  0
 21 23  1  0  0  0  0
 23 14  2  0  0  0  0
 23 24  1  0  0  0  0
M  END
> <ChemID>
104040

> <source_casrn>
1833-51-8

> <CAS>
1833-51-8

> <SMILES>
C[Si](C)(CCl)c1ccccc1

> <NAME>
Silane, (chloromethyl)dimethylphenyl-

> <preferred_name>
Silane, (chloromethyl)dimethylphenyl-

> <iupac>
chloromethyl-dimethyl-phenylsilane

> <MPID>
22962

> <dsstox_substance_id>
DTXSID9062013

> <Canonical_QSARr>
C[Si](C)(CCl)c1ccccc1

> <InChI_Code_QSARr>
InChI=1S/C9H13ClSi/c1-11(2,8-10)9-6-4-3-5-7-9/h3-7H,8H2,1-2H3

> <InChI Key_QSARr>
RJCTVFQQNCNBHG-UHFFFAOYSA-N

> <Salt_Solvent>
?

> <BP>
225.0

$$$$
104044
  -INDIGO-08031720192D

 24 24  0  0  0  0  0  0  0  0999 V2000
   -0.0000    0.0000    0.0000 C   0  0  0  0  0  0  0  0  0  0  0  0
   -0.8001    1.3856    0.0000 C   0  0  0  0  0  0  0  0  0  0  0  0
   -0.0000    2.7713    0.0000 Cl  0  0  0  0  0  0  0  0  0  0  0  0
   -2.3999    1.3856    0.0000 C   0  0  0  0  0  0  0  0  0  0  0  0
   -3.2000    2.7713    0.0000 Cl  0  0  0  0  0  0  0  0  0  0  0  0
   -3.2000    0.0000    0.0000 C   0  0  0  0  0  0  0  0  0  0  0  0
   -4.8000   -0.0000    0.0000 C   0  0  0  0  0  0  0  0  0  0  0  0
   -5.6001   -1.3856    0.0000 O   0  0  0  0  0  0  0  0  0  0  0  0
   -5.6001    1.3856    0.0000 O   0  0  0  0  0  0  0  0  0  0  0  0
   -7.1999    1.3856    0.0000 C   0  0  0  0  0  0  0  0  0  0  0  0
   -8.8000    1.3856    0.0000 H   0  0  0  0  0  0  0  0  0  0  0  0
   -8.0000    2.7713    0.0000 H   0  0  0  0  0  0  0  0  0  0  0  0
   -8.0000   -0.0000    0.0000 H   0  0  0  0  0  0  0  0  0  0  0  0
   -2.3999   -1.3856    0.0000 C   0  0  0  0  0  0  0  0  0  0  0  0
   -3.2000   -2.7713    0.0000 Cl  0  0  0  0  0  0  0  0  0  0  0  0
   -0.8001   -1.3856    0.0000 C   0  0  0  0  0  0  0  0  0  0  0  0
   -0.0000   -2.7713    0.0000 Cl  0  0  0  0  0  0  0  0  0  0  0  0
    1.6000   -0.0000    0.0000 C   0  0  0  0  0  0  0  0  0  0  0  0
    2.4001    1.3856    0.0000 O   0  0  0  0  0  0  0  0  0  0  0  0
    2.4001   -1.3856    0.0000 O   0  0  0  0  0  0  0  0  0  0  0  0
    3.9999   -1.3856    0.0000 C   0  0  0  0  0  0  0  0  0  0  0  0
    5.6000   -1.3856    0.0000 H   0  0  0  0  0  0  0  0  0  0  0  0
    4.8000   -2.7713    0.0000 H   0  0  0  0  0  0  0  0  0  0  0  0
    4.8000   -0.0000    0.0000 H   0  0  0  0  0  0  0  0  0  0  0  0
  1  2  1  0  0  0  0
  2  3  1  0  0  0  0
  2  4  2  0  0  0  0
  4  5  1  0  0  0  0
  4  6  1  0  0  0  0
  6  7  1  0  0  0  0
  7  8  2  0  0  0  0
  7  9  1  0  0  0  0
  9 10  1  0  0  0  0
 10 11  1  0  0  0  0
 10 12  1  0  0  0  0
 10 13  1  0  0  0  0
  6 14  2  0  0  0  0
 14 15  1  0  0  0  0
 14 16  1  0  0  0  0
 16  1  2  0  0  0  0
 16 17  1  0  0  0  0
  1 18  1  0  0  0  0
 18 19  2  0  0  0  0
 18 20  1  0  0  0  0
 20 21  1  0  0  0  0
 21 22  1  0  0  0  0
 21 23  1  0  0  0  0
 21 24  1  0  0  0  0
M  END
> <ChemID>
104044

> <source_casrn>
1861-32-1

> <CAS>
1861-32-1

> <SMILES>
COC(=O)c1c(Cl)c(Cl)c(c(Cl)c1Cl)C(=O)OC

> <NAME>
DIMETHYL TETRACHLOROTEREPHTHALATE

> <preferred_name>
Chlorthal-dimethyl

> <iupac>
dimethyl 2,3,5,6-tetrachlorobenzene-1,4-dicarboxylate

> <MPID>
22966

> <dsstox_substance_id>
DTXSID0024000

> <Canonical_QSARr>
COC(=O)c1c(Cl)c(Cl)c(c(Cl)c1Cl)C(=O)OC

> <InChI_Code_QSARr>
InChI=1S/C10H6Cl4O4/c1-17-9(15)3-5(11)7(13)4(10(16)18-2)8(14)6(3)12/h1-2H3

> <InChI Key_QSARr>
NPOJQCVWMSKXDN-UHFFFAOYSA-N

> <Salt_Solvent>
?

> <BP>
365.0

$$$$
104048
  -INDIGO-08031720192D

 18 18  0  0  0  0  0  0  0  0999 V2000
    1.6000   -0.0000    0.0000 C   0  0  0  0  0  0  0  0  0  0  0  0
    2.2123    1.4782    0.0000 H   0  0  0  0  0  0  0  0  0  0  0  0
    2.7314   -1.1313    0.0000 C   0  0  0  0  0  0  0  0  0  0  0  0
    4.2096   -0.5190    0.0000 H   0  0  0  0  0  0  0  0  0  0  0  0
    2.7314   -2.7314    0.0000 C   0  0  0  0  0  0  0  0  0  0  0  0
    4.2096   -3.3437    0.0000 H   0  0  0  0  0  0  0  0  0  0  0  0
    1.6000   -3.8628    0.0000 C   0  0  0  0  0  0  0  0  0  0  0  0
    2.2123   -5.3409    0.0000 H   0  0  0  0  0  0  0  0  0  0  0  0
   -0.0000   -3.8628    0.0000 C   0  0  0  0  0  0  0  0  0  0  0  0
   -0.6123   -5.3409    0.0000 H   0  0  0  0  0  0  0  0  0  0  0  0
   -1.1313   -2.7314    0.0000 C   0  0  0  0  0  0  0  0  0  0  0  0
   -2.6096   -3.3437    0.0000 H   0  0  0  0  0  0  0  0  0  0  0  0
   -1.1313   -1.1313    0.0000 C   0  0  0  0  0  0  0  0  0  0  0  0
   -2.6769   -1.5455    0.0000 H   0  0  0  0  0  0  0  0  0  0  0  0
   -1.9314    0.2543    0.0000 H   0  0  0  0  0  0  0  0  0  0  0  0
   -0.0000   -0.0000    0.0000 C   0  0  0  0  0  0  0  0  0  0  0  0
   -1.2257    1.0285    0.0000 H   0  0  0  0  0  0  0  0  0  0  0  0
    0.4141    1.5455    0.0000 H   0  0  0  0  0  0  0  0  0  0  0  0
  1  2  1  0  0  0  0
  1  3  2  0  0  0  0
  3  4  1  0  0  0  0
  3  5  1  0  0  0  0
  5  6  1  0  0  0  0
  5  7  2  0  0  0  0
  7  8  1  0  0  0  0
  7  9  1  0  0  0  0
  9 10  1  0  0  0  0
  9 11  2  0  0  0  0
 11 12  1  0  0  0  0
 11 13  1  0  0  0  0
 13 14  1  0  0  0  0
 13 15  1  0  0  0  0
 13 16  1  0  0  0  0
 16  1  1  0  0  0  0
 16 17  1  0  0  0  0
 16 18  1  0  0  0  0
M  END
> <ChemID>
104048

> <source_casrn>
1871-52-9

> <CAS>
NOCAS_870914

> <SMILES>
C1CC=CC=CC=C1

> <NAME>
1,3,5-CYCLOOCTATRIENE

> <preferred_name>


> <iupac>


> <MPID>
22970

> <dsstox_substance_id>
DTXSID70870914

> <Canonical_QSARr>
C1CC=CC=CC=C1

> <InChI_Code_QSARr>
InChI=1S/C8H10/c1-2-4-6-8-7-5-3-1/h1-6H,7-8H2/b2-1-,5-3-,6-4-

> <InChI Key_QSARr>
ICPMUWPXCAVOOQ-XCADPSHZSA-N

> <Salt_Solvent>
?

> <BP>
145.5

$$$$
104052
  -INDIGO-08031720192D

 16 15  0  0  0  0  0  0  0  0999 V2000
    1.6000    0.0000    0.0000 C   0  0  0  0  0  0  0  0  0  0  0  0
    1.8089   -1.5863    0.0000 H   0  0  0  0  0  0  0  0  0  0  0  0
    2.8694   -0.9740    0.0000 H   0  0  0  0  0  0  0  0  0  0  0  0
    0.0000    0.0000    0.0000 C   0  0  0  0  0  0  0  0  0  0  0  0
    0.0000   -1.6000    0.0000 H   0  0  0  0  0  0  0  0  0  0  0  0
   -1.6001    0.0000    0.0000 C   0  0  0  0  0  0  0  0  0  0  0  0
   -3.2000    0.0000    0.0000 H   0  0  0  0  0  0  0  0  0  0  0  0
   -2.4000   -1.3856    0.0000 H   0  0  0  0  0  0  0  0  0  0  0  0
   -2.4000    1.3856    0.0000 H   0  0  0  0  0  0  0  0  0  0  0  0
    0.0000    1.6000    0.0000 C   0  0  0  0  0  0  0  0  0  0  0  0
    0.0000    3.2000    0.0000 H   0  0  0  0  0  0  0  0  0  0  0  0
    1.3856    2.4000    0.0000 H   0  0  0  0  0  0  0  0  0  0  0  0
   -1.3856    2.4000    0.0000 H   0  0  0  0  0  0  0  0  0  0  0  0
    2.4000    1.3856    0.0000 N   0  0  0  0  0  0  0  0  0  0  0  0
    4.0001    1.3856    0.0000 C   0  0  0  0  0  0  0  0  0  0  0  0
    5.6000    1.3856    0.0000 O   0  0  0  0  0  0  0  0  0  0  0  0
  1  2  1  0  0  0  0
  1  3  1  0  0  0  0
  1  4  1  0  0  0  0
  4  5  1  0  0  0  0
  4  6  1  0  0  0  0
  6  7  1  0  0  0  0
  6  8  1  0  0  0  0
  6  9  1  0  0  0  0
  4 10  1  0  0  0  0
 10 11  1  0  0  0  0
 10 12  1  0  0  0  0
 10 13  1  0  0  0  0
  1 14  1  0  0  0  0
 14 15  2  0  0  0  0
 15 16  2  0  0  0  0
M  END
> <ChemID>
104052

> <source_casrn>
1873-29-6

> <CAS>
1873-29-6

> <SMILES>
CC(C)CN=C=O

> <NAME>
PROPANE, 1-ISOCYANATO-2-METHYL-

> <preferred_name>
Propane, 1-isocyanato-2-methyl-

> <iupac>
1-isocyanato-2-methylpropane

> <MPID>
22974

> <dsstox_substance_id>
DTXSID4075293

> <Canonical_QSARr>
CC(C)CN=C=O

> <InChI_Code_QSARr>
InChI=1S/C5H9NO/c1-5(2)3-6-4-7/h5H,3H2,1-2H3

> <InChI Key_QSARr>
NNZVKALEGZPYKL-UHFFFAOYSA-N

> <Salt_Solvent>
?

> <BP>
106.0

$$$$
104057
  -INDIGO-08031720192D

 18 17  0  0  0  0  0  0  0  0999 V2000
    1.3856   -0.8000    0.0000 C   0  0  0  0  0  0  0  0  0  0  0  0
    1.9979   -2.2782    0.0000 H   0  0  0  0  0  0  0  0  0  0  0  0
    0.7733   -2.2782    0.0000 H   0  0  0  0  0  0  0  0  0  0  0  0
   -0.0001    0.0000    0.0000 C   0  0  0  0  0  0  0  0  0  0  0  0
   -0.8000   -1.3857    0.0000 H   0  0  0  0  0  0  0  0  0  0  0  0
   -1.5035    0.5472    0.0000 C   0  0  0  0  0  0  0  0  0  0  0  0
   -1.1572    2.1093    0.0000 H   0  0  0  0  0  0  0  0  0  0  0  0
   -2.3631    1.8967    0.0000 H   0  0  0  0  0  0  0  0  0  0  0  0
   -2.7291   -0.4812    0.0000 C   0  0  0  0  0  0  0  0  0  0  0  0
   -3.9549   -1.5097    0.0000 H   0  0  0  0  0  0  0  0  0  0  0  0
   -4.2327    0.0660    0.0000 H   0  0  0  0  0  0  0  0  0  0  0  0
   -2.4513   -2.0569    0.0000 H   0  0  0  0  0  0  0  0  0  0  0  0
    0.8001    1.3856    0.0000 C   0  0  0  0  0  0  0  0  0  0  0  0
    1.6000    2.7713    0.0000 H   0  0  0  0  0  0  0  0  0  0  0  0
    2.4000    1.3856    0.0000 H   0  0  0  0  0  0  0  0  0  0  0  0
   -0.0001    2.7713    0.0000 H   0  0  0  0  0  0  0  0  0  0  0  0
    2.7713    0.0000    0.0000 S   0  0  0  0  0  0  0  0  0  0  0  0
    4.1569   -0.8000    0.0000 H   0  0  0  0  0  0  0  0  0  0  0  0
  1  2  1  0  0  0  0
  1  3  1  0  0  0  0
  1  4  1  0  0  0  0
  4  5  1  0  0  0  0
  4  6  1  0  0  0  0
  6  7  1  0  0  0  0
  6  8  1  0  0  0  0
  6  9  1  0  0  0  0
  9 10  1  0  0  0  0
  9 11  1  0  0  0  0
  9 12  1  0  0  0  0
  4 13  1  0  0  0  0
 13 14  1  0  0  0  0
 13 15  1  0  0  0  0
 13 16  1  0  0  0  0
  1 17  1  0  0  0  0
 17 18  1  0  0  0  0
M  END
> <ChemID>
104057

> <source_casrn>
1878-18-8

> <CAS>
NOCAS_862771

> <SMILES>
CCC(C)CS

> <NAME>
2-METHYL-1-BUTANETHIOL

> <preferred_name>


> <iupac>


> <MPID>
22978

> <dsstox_substance_id>
DTXSID50862771

> <Canonical_QSARr>
CCC(C)CS

> <InChI_Code_QSARr>
InChI=1S/C5H12S/c1-3-5(2)4-6/h5-6H,3-4H2,1-2H3

> <InChI Key_QSARr>
WGQKBCSACFQGQY-UHFFFAOYSA-N

> <Salt_Solvent>
?

> <BP>
116.5

$$$$
104061
  -INDIGO-08031720192D

 17 17  0  0  0  0  0  0  0  0999 V2000
   -4.0000    1.3856    0.0000 C   0  0  0  0  0  0  0  0  0  0  0  0
   -2.3999    1.3856    0.0000 C   0  0  0  0  0  0  0  0  0  0  0  0
   -1.6000    2.7713    0.0000 H   0  0  0  0  0  0  0  0  0  0  0  0
   -1.6000   -0.0000    0.0000 C   0  0  0  0  0  0  0  0  0  0  0  0
   -2.3999   -1.3856    0.0000 H   0  0  0  0  0  0  0  0  0  0  0  0
   -0.0000   -0.0000    0.0000 C   0  0  0  0  0  0  0  0  0  0  0  0
    0.8000    1.3856    0.0000 C   0  0  0  0  0  0  0  0  0  0  0  0
   -0.0000    2.7713    0.0000 H   0  0  0  0  0  0  0  0  0  0  0  0
    2.4001    1.3856    0.0000 C   0  0  0  0  0  0  0  0  0  0  0  0
    3.2000    2.7713    0.0000 H   0  0  0  0  0  0  0  0  0  0  0  0
    3.2000   -0.0000    0.0000 C   0  0  0  0  0  0  0  0  0  0  0  0
    4.8000   -0.0000    0.0000 H   0  0  0  0  0  0  0  0  0  0  0  0
    2.4001   -1.3856    0.0000 C   0  0  0  0  0  0  0  0  0  0  0  0
    3.2000   -2.7713    0.0000 H   0  0  0  0  0  0  0  0  0  0  0  0
    0.8000   -1.3856    0.0000 C   0  0  0  0  0  0  0  0  0  0  0  0
   -0.0000   -2.7713    0.0000 H   0  0  0  0  0  0  0  0  0  0  0  0
   -5.6000    1.3856    0.0000 N   0  0  0  0  0  0  0  0  0  0  0  0
  1  2  1  0  0  0  0
  2  3  1  0  0  0  0
  2  4  2  0  0  0  0
  4  5  1  0  0  0  0
  4  6  1  0  0  0  0
  6  7  1  0  0  0  0
  7  8  1  0  0  0  0
  7  9  2  0  0  0  0
  9 10  1  0  0  0  0
  9 11  1  0  0  0  0
 11 12  1  0  0  0  0
 11 13  2  0  0  0  0
 13 14  1  0  0  0  0
 13 15  1  0  0  0  0
 15  6  2  0  0  0  0
 15 16  1  0  0  0  0
  1 17  3  0  0  0  0
M  END
> <ChemID>
104061

> <source_casrn>
1885-38-7

> <CAS>
1885-38-7

> <SMILES>
N#C/C=C/c1ccccc1

> <NAME>
3-PHENYL-2-PROPENENITRILE

> <preferred_name>
(2E)-3-Phenylprop-2-enenitrile

> <iupac>
(2E)-3-phenylprop-2-enenitrile

> <MPID>
22982

> <dsstox_substance_id>
DTXSID8044385

> <Canonical_QSARr>
N#CC=Cc1ccccc1

> <InChI_Code_QSARr>
InChI=1S/C9H7N/c10-8-4-7-9-5-2-1-3-6-9/h1-7H/b7-4+

> <InChI Key_QSARr>
ZWKNLRXFUTWSOY-QPJJXVBHSA-N

> <Salt_Solvent>
?

> <BP>
263.8

$$$$
104066
  -INDIGO-08031720192D

 14 14  0  0  0  0  0  0  0  0999 V2000
    1.3856    2.4000    0.0000 Cl  0  0  0  0  0  0  0  0  0  0  0  0
    1.3856    0.8000    0.0000 C   0  0  0  0  0  0  0  0  0  0  0  0
    2.7713   -0.0000    0.0000 C   0  0  0  0  0  0  0  0  0  0  0  0
    4.1570    0.8000    0.0000 C   0  0  0  0  0  0  0  0  0  0  0  0
    5.5426    1.6000    0.0000 N   0  0  0  0  0  0  0  0  0  0  0  0
    2.7713   -1.6000    0.0000 C   0  0  0  0  0  0  0  0  0  0  0  0
    4.1569   -2.4000    0.0000 Cl  0  0  0  0  0  0  0  0  0  0  0  0
    1.3856   -2.4000    0.0000 C   0  0  0  0  0  0  0  0  0  0  0  0
    1.3856   -4.0000    0.0000 Cl  0  0  0  0  0  0  0  0  0  0  0  0
    0.0000   -1.6000    0.0000 C   0  0  0  0  0  0  0  0  0  0  0  0
   -1.3857   -2.4000    0.0000 Cl  0  0  0  0  0  0  0  0  0  0  0  0
    0.0000   -0.0000    0.0000 C   0  0  0  0  0  0  0  0  0  0  0  0
   -1.3857    0.8000    0.0000 C   0  0  0  0  0  0  0  0  0  0  0  0
   -2.7713    1.6000    0.0000 N   0  0  0  0  0  0  0  0  0  0  0  0
  1  2  1  0  0  0  0
  2  3  1  0  0  0  0
  3  4  1  0  0  0  0
  4  5  3  0  0  0  0
  3  6  2  0  0  0  0
  6  7  1  0  0  0  0
  6  8  1  0  0  0  0
  8  9  1  0  0  0  0
  8 10  2  0  0  0  0
 10 11  1  0  0  0  0
 10 12  1  0  0  0  0
 12  2  2  0  0  0  0
 12 13  1  0  0  0  0
 13 14  3  0  0  0  0
M  END
> <ChemID>
104066

> <source_casrn>
1897-45-6

> <CAS>
1897-45-6

> <SMILES>
N#Cc1c(Cl)c(Cl)c(Cl)c(C#N)c1Cl

> <NAME>
CHLOROTHALONIL

> <preferred_name>
Chlorothalonil

> <iupac>
2,4,5,6-tetrachlorobenzene-1,3-dicarbonitrile

> <MPID>
22987

> <dsstox_substance_id>
DTXSID0020319

> <Canonical_QSARr>
N#Cc1c(Cl)c(Cl)c(Cl)c(C#N)c1Cl

> <InChI_Code_QSARr>
InChI=1S/C8Cl4N2/c9-5-3(1-13)6(10)8(12)7(11)4(5)2-14

> <InChI Key_QSARr>
CRQQGFGUEAVUIL-UHFFFAOYSA-N

> <Salt_Solvent>
?

> <BP>
350.0

$$$$
104071
  -INDIGO-08031720192D

 38 39  0  0  0  0  0  0  0  0999 V2000
   -0.0001   -0.0000    0.0000 N   0  0  0  0  0  0  0  0  0  0  0  0
   -0.8000    1.3856    0.0000 C   0  0  0  0  0  0  0  0  0  0  0  0
    0.7035    1.9328    0.0000 H   0  0  0  0  0  0  0  0  0  0  0  0
   -1.0778    2.9613    0.0000 H   0  0  0  0  0  0  0  0  0  0  0  0
   -2.4001    1.3856    0.0000 C   0  0  0  0  0  0  0  0  0  0  0  0
   -2.1223    2.9613    0.0000 H   0  0  0  0  0  0  0  0  0  0  0  0
   -3.9036    1.9328    0.0000 H   0  0  0  0  0  0  0  0  0  0  0  0
   -3.2000   -0.0000    0.0000 C   0  0  0  0  0  0  0  0  0  0  0  0
   -4.4257    1.0285    0.0000 H   0  0  0  0  0  0  0  0  0  0  0  0
   -4.4257   -1.0285    0.0000 H   0  0  0  0  0  0  0  0  0  0  0  0
   -2.4001   -1.3856    0.0000 C   0  0  0  0  0  0  0  0  0  0  0  0
   -3.9036   -1.9329    0.0000 H   0  0  0  0  0  0  0  0  0  0  0  0
   -2.1221   -2.9613    0.0000 H   0  0  0  0  0  0  0  0  0  0  0  0
   -0.8000   -1.3856    0.0000 C   0  0  0  0  0  0  0  0  0  0  0  0
   -1.0778   -2.9613    0.0000 H   0  0  0  0  0  0  0  0  0  0  0  0
    0.5857   -2.1857    0.0000 H   0  0  0  0  0  0  0  0  0  0  0  0
    1.6000   -0.0000    0.0000 C   0  0  0  0  0  0  0  0  0  0  0  0
    2.6810   -1.1797    0.0000 H   0  0  0  0  0  0  0  0  0  0  0  0
    1.5301   -1.5985    0.0000 H   0  0  0  0  0  0  0  0  0  0  0  0
    2.6285    1.2257    0.0000 C   0  0  0  0  0  0  0  0  0  0  0  0
    1.5475    2.4053    0.0000 H   0  0  0  0  0  0  0  0  0  0  0  0
    2.6983    2.8242    0.0000 H   0  0  0  0  0  0  0  0  0  0  0  0
    4.2285    1.2257    0.0000 N   0  0  0  0  0  0  0  0  0  0  0  0
    5.0285    2.6113    0.0000 C   0  0  0  0  0  0  0  0  0  0  0  0
    3.6428    3.4114    0.0000 H   0  0  0  0  0  0  0  0  0  0  0  0
    5.3063    4.1870    0.0000 H   0  0  0  0  0  0  0  0  0  0  0  0
    6.6285    2.6113    0.0000 C   0  0  0  0  0  0  0  0  0  0  0  0
    6.3507    4.1870    0.0000 H   0  0  0  0  0  0  0  0  0  0  0  0
    8.1320    3.1585    0.0000 H   0  0  0  0  0  0  0  0  0  0  0  0
    7.4285    1.2257    0.0000 C   0  0  0  0  0  0  0  0  0  0  0  0
    8.6541    2.2542    0.0000 H   0  0  0  0  0  0  0  0  0  0  0  0
    8.6541    0.1972    0.0000 H   0  0  0  0  0  0  0  0  0  0  0  0
    6.6285   -0.1599    0.0000 C   0  0  0  0  0  0  0  0  0  0  0  0
    8.1320   -0.7072    0.0000 H   0  0  0  0  0  0  0  0  0  0  0  0
    6.3507   -1.7356    0.0000 H   0  0  0  0  0  0  0  0  0  0  0  0
    5.0285   -0.1599    0.0000 C   0  0  0  0  0  0  0  0  0  0  0  0
    5.3063   -1.7356    0.0000 H   0  0  0  0  0  0  0  0  0  0  0  0
    3.5250   -0.7072    0.0000 H   0  0  0  0  0  0  0  0  0  0  0  0
  1  2  1  0  0  0  0
  2  3  1  0  0  0  0
  2  4  1  0  0  0  0
  2  5  1  0  0  0  0
  5  6  1  0  0  0  0
  5  7  1  0  0  0  0
  5  8  1  0  0  0  0
  8  9  1  0  0  0  0
  8 10  1  0  0  0  0
  8 11  1  0  0  0  0
 11 12  1  0  0  0  0
 11 13  1  0  0  0  0
 11 14  1  0  0  0  0
 14  1  1  0  0  0  0
 14 15  1  0  0  0  0
 14 16  1  0  0  0  0
  1 17  1  0  0  0  0
 17 18  1  0  0  0  0
 17 19  1  0  0  0  0
 17 20  1  0  0  0  0
 20 21  1  0  0  0  0
 20 22  1  0  0  0  0
 20 23  1  0  0  0  0
 23 24  1  0  0  0  0
 24 25  1  0  0  0  0
 24 26  1  0  0  0  0
 24 27  1  0  0  0  0
 27 28  1  0  0  0  0
 27 29  1  0  0  0  0
 27 30  1  0  0  0  0
 30 31  1  0  0  0  0
 30 32  1  0  0  0  0
 30 33  1  0  0  0  0
 33 34  1  0  0  0  0
 33 35  1  0  0  0  0
 33 36  1  0  0  0  0
 36 23  1  0  0  0  0
 36 37  1  0  0  0  0
 36 38  1  0  0  0  0
M  END
> <ChemID>
104071

> <source_casrn>
1932-04-3

> <CAS>
1932-04-3

> <SMILES>
C(CN1CCCCC1)N1CCCCC1

> <NAME>
Piperidine, 1,1'-(1,2-ethanediyl)bis-

> <preferred_name>
Piperidine, 1,1'-(1,2-ethanediyl)bis-

> <iupac>
1-(2-piperidin-1-ylethyl)piperidine

> <MPID>
22991

> <dsstox_substance_id>
DTXSID9062067

> <Canonical_QSARr>
C(CN1CCCCC1)N1CCCCC1

> <InChI_Code_QSARr>
InChI=1S/C12H24N2/c1-3-7-13(8-4-1)11-12-14-9-5-2-6-10-14/h1-12H2

> <InChI Key_QSARr>
UYMQPNRUQXPLCY-UHFFFAOYSA-N

> <Salt_Solvent>
?

> <BP>
265.0

$$$$
104075
  -INDIGO-08031720192D

 26 26  0  0  0  0  0  0  0  0999 V2000
    4.7999    2.7713    0.0000 O   0  0  0  0  0  0  0  0  0  0  0  0
    6.4000    2.7713    0.0000 H   0  0  0  0  0  0  0  0  0  0  0  0
    4.0000    1.3856    0.0000 C   0  0  0  0  0  0  0  0  0  0  0  0
    4.8001   -0.0000    0.0000 C   0  0  0  0  0  0  0  0  0  0  0  0
    6.4000   -0.0000    0.0000 H   0  0  0  0  0  0  0  0  0  0  0  0
    4.0000   -1.3857    0.0000 C   0  0  0  0  0  0  0  0  0  0  0  0
    4.8001   -2.7713    0.0000 H   0  0  0  0  0  0  0  0  0  0  0  0
    2.4000   -1.3857    0.0000 C   0  0  0  0  0  0  0  0  0  0  0  0
    1.5999   -2.7713    0.0000 O   0  0  0  0  0  0  0  0  0  0  0  0
    2.4000   -4.1569    0.0000 H   0  0  0  0  0  0  0  0  0  0  0  0
    1.5999   -0.0000    0.0000 C   0  0  0  0  0  0  0  0  0  0  0  0
    0.0000   -0.0000    0.0000 C   0  0  0  0  0  0  0  0  0  0  0  0
   -1.6001   -0.0000    0.0000 C   0  0  0  0  0  0  0  0  0  0  0  0
   -3.2000   -0.0000    0.0000 H   0  0  0  0  0  0  0  0  0  0  0  0
   -2.6284    1.2257    0.0000 H   0  0  0  0  0  0  0  0  0  0  0  0
   -2.6284   -1.2257    0.0000 H   0  0  0  0  0  0  0  0  0  0  0  0
    0.0000    1.6000    0.0000 C   0  0  0  0  0  0  0  0  0  0  0  0
    0.2779    3.1757    0.0000 H   0  0  0  0  0  0  0  0  0  0  0  0
   -1.2257    2.6284    0.0000 H   0  0  0  0  0  0  0  0  0  0  0  0
   -1.5035    1.0527    0.0000 H   0  0  0  0  0  0  0  0  0  0  0  0
    0.0000   -1.6000    0.0000 C   0  0  0  0  0  0  0  0  0  0  0  0
    0.2779   -3.1757    0.0000 H   0  0  0  0  0  0  0  0  0  0  0  0
   -1.2257   -2.6284    0.0000 H   0  0  0  0  0  0  0  0  0  0  0  0
   -1.5035   -1.0528    0.0000 H   0  0  0  0  0  0  0  0  0  0  0  0
    2.4000    1.3856    0.0000 C   0  0  0  0  0  0  0  0  0  0  0  0
    1.5999    2.7713    0.0000 H   0  0  0  0  0  0  0  0  0  0  0  0
  1  2  1  0  0  0  0
  1  3  1  0  0  0  0
  3  4  1  0  0  0  0
  4  5  1  0  0  0  0
  4  6  2  0  0  0  0
  6  7  1  0  0  0  0
  6  8  1  0  0  0  0
  8  9  1  0  0  0  0
  9 10  1  0  0  0  0
  8 11  2  0  0  0  0
 11 12  1  0  0  0  0
 12 13  1  0  0  0  0
 13 14  1  0  0  0  0
 13 15  1  0  0  0  0
 13 16  1  0  0  0  0
 12 17  1  0  0  0  0
 17 18  1  0  0  0  0
 17 19  1  0  0  0  0
 17 20  1  0  0  0  0
 12 21  1  0  0  0  0
 21 22  1  0  0  0  0
 21 23  1  0  0  0  0
 21 24  1  0  0  0  0
 11 25  1  0  0  0  0
 25  3  2  0  0  0  0
 25 26  1  0  0  0  0
M  END
> <ChemID>
104075

> <source_casrn>
1948-33-0

> <CAS>
1948-33-0

> <SMILES>
CC(C)(C)c1cc(O)ccc1O

> <NAME>
2-tert-Butylhydroquinone

> <preferred_name>
tert-Butylhydroquinone

> <iupac>
2-tert-butylbenzene-1,4-diol

> <MPID>
22995

> <dsstox_substance_id>
DTXSID6020220

> <Canonical_QSARr>
CC(C)(C)c1cc(O)ccc1O

> <InChI_Code_QSARr>
InChI=1S/C10H14O2/c1-10(2,3)8-6-7(11)4-5-9(8)12/h4-6,11-12H,1-3H3

> <InChI Key_QSARr>
BGNXCDMCOKJUMV-UHFFFAOYSA-N

> <Salt_Solvent>
?

> <BP>
273.0

$$$$
104079
  -INDIGO-08031720192D

 18 18  0  0  0  0  0  0  0  0999 V2000
   -1.6000    2.7713    0.0000 Br  0  0  0  0  0  0  0  0  0  0  0  0
   -2.4000    1.3856    0.0000 C   0  0  0  0  0  0  0  0  0  0  0  0
   -1.6000   -0.0000    0.0000 C   0  0  0  0  0  0  0  0  0  0  0  0
    0.0000   -0.0000    0.0000 C   0  0  0  0  0  0  0  0  0  0  0  0
    0.2088   -1.5863    0.0000 H   0  0  0  0  0  0  0  0  0  0  0  0
    1.2694   -0.9740    0.0000 H   0  0  0  0  0  0  0  0  0  0  0  0
    0.8001    1.3856    0.0000 C   0  0  0  0  0  0  0  0  0  0  0  0
    2.4000    1.3856    0.0000 H   0  0  0  0  0  0  0  0  0  0  0  0
    1.6000    2.7713    0.0000 H   0  0  0  0  0  0  0  0  0  0  0  0
    1.6000   -0.0000    0.0000 H   0  0  0  0  0  0  0  0  0  0  0  0
   -2.4000   -1.3856    0.0000 C   0  0  0  0  0  0  0  0  0  0  0  0
   -1.6000   -2.7713    0.0000 H   0  0  0  0  0  0  0  0  0  0  0  0
   -4.0000   -1.3856    0.0000 C   0  0  0  0  0  0  0  0  0  0  0  0
   -4.8001   -2.7713    0.0000 H   0  0  0  0  0  0  0  0  0  0  0  0
   -4.8001   -0.0000    0.0000 C   0  0  0  0  0  0  0  0  0  0  0  0
   -6.4000   -0.0000    0.0000 H   0  0  0  0  0  0  0  0  0  0  0  0
   -4.0000    1.3856    0.0000 C   0  0  0  0  0  0  0  0  0  0  0  0
   -4.8001    2.7713    0.0000 H   0  0  0  0  0  0  0  0  0  0  0  0
  1  2  1  0  0  0  0
  2  3  1  0  0  0  0
  3  4  1  0  0  0  0
  4  5  1  0  0  0  0
  4  6  1  0  0  0  0
  4  7  1  0  0  0  0
  7  8  1  0  0  0  0
  7  9  1  0  0  0  0
  7 10  1  0  0  0  0
  3 11  2  0  0  0  0
 11 12  1  0  0  0  0
 11 13  1  0  0  0  0
 13 14  1  0  0  0  0
 13 15  2  0  0  0  0
 15 16  1  0  0  0  0
 15 17  1  0  0  0  0
 17  2  2  0  0  0  0
 17 18  1  0  0  0  0
M  END
> <ChemID>
104079

> <source_casrn>
1973-22-4

> <CAS>
1973-22-4

> <SMILES>
CCc1ccccc1Br

> <NAME>
1-Bromo-2-ethylbenzene

> <preferred_name>
o-Bromoethylbenzene

> <iupac>
1-BROMO-2-ETHYLBENZENE

> <MPID>
22999

> <dsstox_substance_id>
DTXSID20173402

> <Canonical_QSARr>
CCc1ccccc1Br

> <InChI_Code_QSARr>
InChI=1S/C8H9Br/c1-2-7-5-3-4-6-8(7)9/h3-6H,2H2,1H3

> <InChI Key_QSARr>
HVRUGFJYCAFAAN-UHFFFAOYSA-N

> <Salt_Solvent>
?

> <BP>
199.3

$$$$
104083
  -INDIGO-08031720192D

 28 29  0  0  0  0  0  0  0  0999 V2000
    0.0000   -0.0000    0.0000 C   0  0  0  0  0  0  0  0  0  0  0  0
   -0.8001   -1.3856    0.0000 C   0  0  0  0  0  0  0  0  0  0  0  0
   -2.0256   -0.3572    0.0000 H   0  0  0  0  0  0  0  0  0  0  0  0
   -2.0256   -2.4141    0.0000 H   0  0  0  0  0  0  0  0  0  0  0  0
    0.0000   -2.7713    0.0000 C   0  0  0  0  0  0  0  0  0  0  0  0
   -1.5036   -3.3185    0.0000 H   0  0  0  0  0  0  0  0  0  0  0  0
    0.2778   -4.3470    0.0000 H   0  0  0  0  0  0  0  0  0  0  0  0
    1.6000   -2.7713    0.0000 C   0  0  0  0  0  0  0  0  0  0  0  0
    1.3222   -4.3470    0.0000 H   0  0  0  0  0  0  0  0  0  0  0  0
    3.1036   -3.3185    0.0000 H   0  0  0  0  0  0  0  0  0  0  0  0
    2.4001   -1.3856    0.0000 C   0  0  0  0  0  0  0  0  0  0  0  0
    1.6000   -0.0000    0.0000 C   0  0  0  0  0  0  0  0  0  0  0  0
    2.4001    1.3857    0.0000 C   0  0  0  0  0  0  0  0  0  0  0  0
    2.4001    2.9856    0.0000 H   0  0  0  0  0  0  0  0  0  0  0  0
    4.0000    1.3857    0.0000 C   0  0  0  0  0  0  0  0  0  0  0  0
    4.7999    2.7713    0.0000 H   0  0  0  0  0  0  0  0  0  0  0  0
    4.7999   -0.0000    0.0000 C   0  0  0  0  0  0  0  0  0  0  0  0
    6.4000   -0.0000    0.0000 H   0  0  0  0  0  0  0  0  0  0  0  0
    4.0000   -1.3856    0.0000 C   0  0  0  0  0  0  0  0  0  0  0  0
    4.7999   -2.7713    0.0000 H   0  0  0  0  0  0  0  0  0  0  0  0
    0.2778    1.5757    0.0000 C   0  0  0  0  0  0  0  0  0  0  0  0
   -0.9478    2.6041    0.0000 H   0  0  0  0  0  0  0  0  0  0  0  0
    0.5557    3.1514    0.0000 H   0  0  0  0  0  0  0  0  0  0  0  0
    1.7814    2.1229    0.0000 H   0  0  0  0  0  0  0  0  0  0  0  0
   -1.5036    0.5472    0.0000 C   0  0  0  0  0  0  0  0  0  0  0  0
   -3.0070    1.0945    0.0000 H   0  0  0  0  0  0  0  0  0  0  0  0
   -1.7813    2.1229    0.0000 H   0  0  0  0  0  0  0  0  0  0  0  0
   -3.0070   -0.0000    0.0000 H   0  0  0  0  0  0  0  0  0  0  0  0
  1  2  1  0  0  0  0
  2  3  1  0  0  0  0
  2  4  1  0  0  0  0
  2  5  1  0  0  0  0
  5  6  1  0  0  0  0
  5  7  1  0  0  0  0
  5  8  1  0  0  0  0
  8  9  1  0  0  0  0
  8 10  1  0  0  0  0
  8 11  1  0  0  0  0
 11 12  1  0  0  0  0
 12  1  1  0  0  0  0
 12 13  2  0  0  0  0
 13 14  1  0  0  0  0
 13 15  1  0  0  0  0
 15 16  1  0  0  0  0
 15 17  2  0  0  0  0
 17 18  1  0  0  0  0
 17 19  1  0  0  0  0
 19 11  2  0  0  0  0
 19 20  1  0  0  0  0
  1 21  1  0  0  0  0
 21 22  1  0  0  0  0
 21 23  1  0  0  0  0
 21 24  1  0  0  0  0
  1 25  1  0  0  0  0
 25 26  1  0  0  0  0
 25 27  1  0  0  0  0
 25 28  1  0  0  0  0
M  END
> <ChemID>
104083

> <source_casrn>
1985-59-7

> <CAS>
1985-59-7

> <SMILES>
CC1(C)CCCc2ccccc12

> <NAME>
NAPHTHALENE, 1,2,3,4-TETRAHYDRO-1,1-DIMETHYL-

> <preferred_name>
1,1-Dimethyl(1,2,3,4-tetrahydronaphthalene)

> <iupac>
4,4-dimethyl-2,3-dihydro-1H-naphthalene

> <MPID>
23003

> <dsstox_substance_id>
DTXSID70173598

> <Canonical_QSARr>
CC1(C)CCCc2ccccc12

> <InChI_Code_QSARr>
InChI=1S/C12H16/c1-12(2)9-5-7-10-6-3-4-8-11(10)12/h3-4,6,8H,5,7,9H2,1-2H3

> <InChI Key_QSARr>
ABIPNDAVRBMCHV-UHFFFAOYSA-N

> <Salt_Solvent>
?

> <BP>
221.0

$$$$
104089
  -INDIGO-08031720192D

 34 33  0  0  0  0  0  0  0  0999 V2000
    6.9283    0.8000    0.0000 C   0  0  0  0  0  0  0  0  0  0  0  0
    8.3138    1.6000    0.0000 H   0  0  0  0  0  0  0  0  0  0  0  0
    8.3138    0.0000    0.0000 H   0  0  0  0  0  0  0  0  0  0  0  0
    6.9283    2.4000    0.0000 H   0  0  0  0  0  0  0  0  0  0  0  0
    5.5427    0.0000    0.0000 C   0  0  0  0  0  0  0  0  0  0  0  0
    6.1549   -1.4782    0.0000 H   0  0  0  0  0  0  0  0  0  0  0  0
    4.9302   -1.4782    0.0000 H   0  0  0  0  0  0  0  0  0  0  0  0
    4.1569    0.8000    0.0000 C   0  0  0  0  0  0  0  0  0  0  0  0
    3.5446    2.2782    0.0000 H   0  0  0  0  0  0  0  0  0  0  0  0
    4.7691    2.2782    0.0000 H   0  0  0  0  0  0  0  0  0  0  0  0
    2.7713    0.0000    0.0000 C   0  0  0  0  0  0  0  0  0  0  0  0
    3.3835   -1.4782    0.0000 H   0  0  0  0  0  0  0  0  0  0  0  0
    2.1590   -1.4782    0.0000 H   0  0  0  0  0  0  0  0  0  0  0  0
    1.3857    0.8000    0.0000 C   0  0  0  0  0  0  0  0  0  0  0  0
    0.7735    2.2782    0.0000 H   0  0  0  0  0  0  0  0  0  0  0  0
    1.9979    2.2782    0.0000 H   0  0  0  0  0  0  0  0  0  0  0  0
    0.0001    0.0000    0.0000 C   0  0  0  0  0  0  0  0  0  0  0  0
    0.6124   -1.4782    0.0000 H   0  0  0  0  0  0  0  0  0  0  0  0
   -0.6124   -1.4782    0.0000 H   0  0  0  0  0  0  0  0  0  0  0  0
   -1.3857    0.8000    0.0000 C   0  0  0  0  0  0  0  0  0  0  0  0
   -1.9979    2.2782    0.0000 H   0  0  0  0  0  0  0  0  0  0  0  0
   -0.7735    2.2782    0.0000 H   0  0  0  0  0  0  0  0  0  0  0  0
   -2.7713    0.0000    0.0000 C   0  0  0  0  0  0  0  0  0  0  0  0
   -2.1590   -1.4782    0.0000 H   0  0  0  0  0  0  0  0  0  0  0  0
   -3.3835   -1.4782    0.0000 H   0  0  0  0  0  0  0  0  0  0  0  0
   -4.1569    0.8000    0.0000 C   0  0  0  0  0  0  0  0  0  0  0  0
   -4.7691    2.2782    0.0000 H   0  0  0  0  0  0  0  0  0  0  0  0
   -3.5446    2.2782    0.0000 H   0  0  0  0  0  0  0  0  0  0  0  0
   -5.5427    0.0000    0.0000 C   0  0  0  0  0  0  0  0  0  0  0  0
   -4.9302   -1.4782    0.0000 H   0  0  0  0  0  0  0  0  0  0  0  0
   -6.1549   -1.4782    0.0000 H   0  0  0  0  0  0  0  0  0  0  0  0
   -6.9283    0.8000    0.0000 N   0  0  0  0  0  0  0  0  0  0  0  0
   -8.3138    0.0000    0.0000 H   0  0  0  0  0  0  0  0  0  0  0  0
   -6.9283    2.4000    0.0000 H   0  0  0  0  0  0  0  0  0  0  0  0
  1  2  1  0  0  0  0
  1  3  1  0  0  0  0
  1  4  1  0  0  0  0
  1  5  1  0  0  0  0
  5  6  1  0  0  0  0
  5  7  1  0  0  0  0
  5  8  1  0  0  0  0
  8  9  1  0  0  0  0
  8 10  1  0  0  0  0
  8 11  1  0  0  0  0
 11 12  1  0  0  0  0
 11 13  1  0  0  0  0
 11 14  1  0  0  0  0
 14 15  1  0  0  0  0
 14 16  1  0  0  0  0
 14 17  1  0  0  0  0
 17 18  1  0  0  0  0
 17 19  1  0  0  0  0
 17 20  1  0  0  0  0
 20 21  1  0  0  0  0
 20 22  1  0  0  0  0
 20 23  1  0  0  0  0
 23 24  1  0  0  0  0
 23 25  1  0  0  0  0
 23 26  1  0  0  0  0
 26 27  1  0  0  0  0
 26 28  1  0  0  0  0
 26 29  1  0  0  0  0
 29 30  1  0  0  0  0
 29 31  1  0  0  0  0
 29 32  1  0  0  0  0
 32 33  1  0  0  0  0
 32 34  1  0  0  0  0
M  END
> <ChemID>
104089

> <source_casrn>
2016-57-1

> <CAS>
2016-57-1

> <SMILES>
CCCCCCCCCCN

> <NAME>
N-DECYLAMINE

> <preferred_name>
1-Decanamine

> <iupac>
decan-1-amine

> <MPID>
23009

> <dsstox_substance_id>
DTXSID2022171

> <Canonical_QSARr>
CCCCCCCCCCN

> <InChI_Code_QSARr>
InChI=1S/C10H23N/c1-2-3-4-5-6-7-8-9-10-11/h2-11H2,1H3

> <InChI Key_QSARr>
MHZGKXUYDGKKIU-UHFFFAOYSA-N

> <Salt_Solvent>
?

> <BP>
220.5

$$$$
104093
  -INDIGO-08031720192D

 28 28  0  0  0  0  0  0  0  0999 V2000
   -2.4000    4.1569    0.0000 O   0  0  0  0  0  0  0  0  0  0  0  0
   -0.8001    4.1569    0.0000 C   0  0  0  0  0  0  0  0  0  0  0  0
   -0.0001    5.5426    0.0000 H   0  0  0  0  0  0  0  0  0  0  0  0
   -0.0001    2.7713    0.0000 C   0  0  0  0  0  0  0  0  0  0  0  0
    1.6001    2.7713    0.0000 C   0  0  0  0  0  0  0  0  0  0  0  0
    2.4001    4.1569    0.0000 H   0  0  0  0  0  0  0  0  0  0  0  0
    2.4001    1.3857    0.0000 C   0  0  0  0  0  0  0  0  0  0  0  0
    4.0000    1.3857    0.0000 H   0  0  0  0  0  0  0  0  0  0  0  0
    1.6001   -0.0001    0.0000 C   0  0  0  0  0  0  0  0  0  0  0  0
    2.4001   -1.3857    0.0000 O   0  0  0  0  0  0  0  0  0  0  0  0
    4.0000   -1.3857    0.0000 C   0  0  0  0  0  0  0  0  0  0  0  0
    5.2693   -0.4117    0.0000 H   0  0  0  0  0  0  0  0  0  0  0  0
    4.2089    0.2006    0.0000 H   0  0  0  0  0  0  0  0  0  0  0  0
    4.8000   -2.7713    0.0000 C   0  0  0  0  0  0  0  0  0  0  0  0
    5.6000   -4.1569    0.0000 H   0  0  0  0  0  0  0  0  0  0  0  0
    6.4000   -2.7713    0.0000 H   0  0  0  0  0  0  0  0  0  0  0  0
    4.0000   -4.1569    0.0000 H   0  0  0  0  0  0  0  0  0  0  0  0
   -0.0001   -0.0001    0.0000 C   0  0  0  0  0  0  0  0  0  0  0  0
   -0.8001   -1.3857    0.0000 O   0  0  0  0  0  0  0  0  0  0  0  0
   -2.4000   -1.3857    0.0000 C   0  0  0  0  0  0  0  0  0  0  0  0
   -2.6089    0.2006    0.0000 H   0  0  0  0  0  0  0  0  0  0  0  0
   -3.6693   -0.4117    0.0000 H   0  0  0  0  0  0  0  0  0  0  0  0
   -3.2000   -2.7713    0.0000 C   0  0  0  0  0  0  0  0  0  0  0  0
   -4.0000   -4.1569    0.0000 H   0  0  0  0  0  0  0  0  0  0  0  0
   -4.8000   -2.7713    0.0000 H   0  0  0  0  0  0  0  0  0  0  0  0
   -2.4000   -4.1569    0.0000 H   0  0  0  0  0  0  0  0  0  0  0  0
   -0.8001    1.3857    0.0000 C   0  0  0  0  0  0  0  0  0  0  0  0
   -2.4000    1.3857    0.0000 H   0  0  0  0  0  0  0  0  0  0  0  0
  1  2  2  0  0  0  0
  2  3  1  0  0  0  0
  2  4  1  0  0  0  0
  4  5  1  0  0  0  0
  5  6  1  0  0  0  0
  5  7  2  0  0  0  0
  7  8  1  0  0  0  0
  7  9  1  0  0  0  0
  9 10  1  0  0  0  0
 10 11  1  0  0  0  0
 11 12  1  0  0  0  0
 11 13  1  0  0  0  0
 11 14  1  0  0  0  0
 14 15  1  0  0  0  0
 14 16  1  0  0  0  0
 14 17  1  0  0  0  0
  9 18  2  0  0  0  0
 18 19  1  0  0  0  0
 19 20  1  0  0  0  0
 20 21  1  0  0  0  0
 20 22  1  0  0  0  0
 20 23  1  0  0  0  0
 23 24  1  0  0  0  0
 23 25  1  0  0  0  0
 23 26  1  0  0  0  0
 18 27  1  0  0  0  0
 27  4  2  0  0  0  0
 27 28  1  0  0  0  0
M  END
> <ChemID>
104093

> <source_casrn>
2029-94-9

> <CAS>
2029-94-9

> <SMILES>
CCOc1cc(C=O)ccc1OCC

> <NAME>
Benzaldehyde, 3,4-diethoxy-

> <preferred_name>
Benzaldehyde, 3,4-diethoxy-

> <iupac>
3,4-Diethoxybenzaldehyde

> <MPID>
23013

> <dsstox_substance_id>
DTXSID3062108

> <Canonical_QSARr>
CCOc1cc(C=O)ccc1OCC

> <InChI_Code_QSARr>
InChI=1S/C11H14O3/c1-3-13-10-6-5-9(8-12)7-11(10)14-4-2/h5-8H,3-4H2,1-2H3

> <InChI Key_QSARr>
SSTRYEXQYQGGAS-UHFFFAOYSA-N

> <Salt_Solvent>
?

> <BP>
279.0

$$$$
104097
  -INDIGO-08031720192D

 23 23  0  0  0  0  0  0  0  0999 V2000
    2.7713   -1.6000    0.0000 N   0  0  0  0  0  0  0  0  0  0  0  0
    4.1569   -2.4000    0.0000 H   0  0  0  0  0  0  0  0  0  0  0  0
    1.3857   -2.4000    0.0000 H   0  0  0  0  0  0  0  0  0  0  0  0
    2.7713   -0.0000    0.0000 C   0  0  0  0  0  0  0  0  0  0  0  0
    3.7453    1.2694    0.0000 H   0  0  0  0  0  0  0  0  0  0  0  0
    4.3576    0.2088    0.0000 H   0  0  0  0  0  0  0  0  0  0  0  0
    1.3857    0.8000    0.0000 C   0  0  0  0  0  0  0  0  0  0  0  0
    1.9980    2.2782    0.0000 H   0  0  0  0  0  0  0  0  0  0  0  0
    0.7734    2.2782    0.0000 H   0  0  0  0  0  0  0  0  0  0  0  0
    0.0001   -0.0000    0.0000 N   0  0  0  0  0  0  0  0  0  0  0  0
    0.0001   -1.6000    0.0000 C   0  0  0  0  0  0  0  0  0  0  0  0
    1.5757   -1.3221    0.0000 H   0  0  0  0  0  0  0  0  0  0  0  0
    0.5473   -3.1035    0.0000 H   0  0  0  0  0  0  0  0  0  0  0  0
   -1.3857   -2.4000    0.0000 C   0  0  0  0  0  0  0  0  0  0  0  0
   -0.3572   -3.6257    0.0000 H   0  0  0  0  0  0  0  0  0  0  0  0
   -2.4141   -3.6257    0.0000 H   0  0  0  0  0  0  0  0  0  0  0  0
   -2.7713   -1.6000    0.0000 O   0  0  0  0  0  0  0  0  0  0  0  0
   -2.7713   -0.0000    0.0000 C   0  0  0  0  0  0  0  0  0  0  0  0
   -4.3470   -0.2778    0.0000 H   0  0  0  0  0  0  0  0  0  0  0  0
   -3.3185    1.5035    0.0000 H   0  0  0  0  0  0  0  0  0  0  0  0
   -1.3857    0.8000    0.0000 C   0  0  0  0  0  0  0  0  0  0  0  0
   -2.4141    2.0257    0.0000 H   0  0  0  0  0  0  0  0  0  0  0  0
   -0.3572    2.0257    0.0000 H   0  0  0  0  0  0  0  0  0  0  0  0
  1  2  1  0  0  0  0
  1  3  1  0  0  0  0
  1  4  1  0  0  0  0
  4  5  1  0  0  0  0
  4  6  1  0  0  0  0
  4  7  1  0  0  0  0
  7  8  1  0  0  0  0
  7  9  1  0  0  0  0
  7 10  1  0  0  0  0
 10 11  1  0  0  0  0
 11 12  1  0  0  0  0
 11 13  1  0  0  0  0
 11 14  1  0  0  0  0
 14 15  1  0  0  0  0
 14 16  1  0  0  0  0
 14 17  1  0  0  0  0
 17 18  1  0  0  0  0
 18 19  1  0  0  0  0
 18 20  1  0  0  0  0
 18 21  1  0  0  0  0
 21 10  1  0  0  0  0
 21 22  1  0  0  0  0
 21 23  1  0  0  0  0
M  END
> <ChemID>
104097

> <source_casrn>
2038-03-1

> <CAS>
2038-03-1

> <SMILES>
NCCN1CCOCC1

> <NAME>
4-Morpholineethanamine

> <preferred_name>
2-Morpholinoethylamine

> <iupac>
2-(morpholin-4-yl)ethanamine

> <MPID>
23017

> <dsstox_substance_id>
DTXSID4044408

> <Canonical_QSARr>
NCCN1CCOCC1

> <InChI_Code_QSARr>
InChI=1S/C6H14N2O/c7-1-2-8-3-5-9-6-4-8/h1-7H2

> <InChI Key_QSARr>
RWIVICVCHVMHMU-UHFFFAOYSA-N

> <Salt_Solvent>
?

> <BP>
205.0

$$$$
104101
  -INDIGO-08031720192D

 16 16  0  0  0  0  0  0  0  0999 V2000
    0.0001   -0.0000    0.0000 C   0  0  0  0  0  0  0  0  0  0  0  0
    0.0001   -1.6000    0.0000 C   0  0  0  0  0  0  0  0  0  0  0  0
    1.3856   -2.4000    0.0000 H   0  0  0  0  0  0  0  0  0  0  0  0
   -1.3856   -2.4000    0.0000 C   0  0  0  0  0  0  0  0  0  0  0  0
   -1.3856   -4.0000    0.0000 H   0  0  0  0  0  0  0  0  0  0  0  0
   -2.7712   -1.6000    0.0000 C   0  0  0  0  0  0  0  0  0  0  0  0
   -4.1569   -2.4000    0.0000 H   0  0  0  0  0  0  0  0  0  0  0  0
   -2.7712   -0.0000    0.0000 C   0  0  0  0  0  0  0  0  0  0  0  0
   -4.1569    0.8000    0.0000 H   0  0  0  0  0  0  0  0  0  0  0  0
   -1.3856    0.8000    0.0000 C   0  0  0  0  0  0  0  0  0  0  0  0
   -1.3856    2.4000    0.0000 Br  0  0  0  0  0  0  0  0  0  0  0  0
    1.3856    0.8000    0.0000 C   0  0  0  0  0  0  0  0  0  0  0  0
    1.3856    2.4000    0.0000 H   0  0  0  0  0  0  0  0  0  0  0  0
    2.7713   -0.0000    0.0000 C   0  0  0  0  0  0  0  0  0  0  0  0
    4.1569    0.8000    0.0000 H   0  0  0  0  0  0  0  0  0  0  0  0
    2.7713   -1.6000    0.0000 H   0  0  0  0  0  0  0  0  0  0  0  0
  1  2  1  0  0  0  0
  2  3  1  0  0  0  0
  2  4  2  0  0  0  0
  4  5  1  0  0  0  0
  4  6  1  0  0  0  0
  6  7  1  0  0  0  0
  6  8  2  0  0  0  0
  8  9  1  0  0  0  0
  8 10  1  0  0  0  0
 10  1  2  0  0  0  0
 10 11  1  0  0  0  0
  1 12  1  0  0  0  0
 12 13  1  0  0  0  0
 12 14  2  0  0  0  0
 14 15  1  0  0  0  0
 14 16  1  0  0  0  0
M  END
> <ChemID>
104101

> <source_casrn>
2039-88-5

> <CAS>
2039-88-5

> <SMILES>
C=Cc1ccccc1Br

> <NAME>
2-BROMOSTYRENE

> <preferred_name>
2-Bromostyrene

> <iupac>
1-bromo-2-ethenylbenzene

> <MPID>
23021

> <dsstox_substance_id>
DTXSID8040777

> <Canonical_QSARr>
C=Cc1ccccc1Br

> <InChI_Code_QSARr>
InChI=1S/C8H7Br/c1-2-7-5-3-4-6-8(7)9/h2-6H,1H2

> <InChI Key_QSARr>
SSZOCHFYWWVSAI-UHFFFAOYSA-N

> <Salt_Solvent>
?

> <BP>
209.2

$$$$
104105
  -INDIGO-08031720192D

 24 24  0  0  0  0  0  0  0  0999 V2000
    0.0000    0.0000    0.0000 C   0  0  0  0  0  0  0  0  0  0  0  0
    0.6508    1.4617    0.0000 H   0  0  0  0  0  0  0  0  0  0  0  0
   -0.3326   -1.5650    0.0000 C   0  0  0  0  0  0  0  0  0  0  0  0
    1.2586   -1.7323    0.0000 H   0  0  0  0  0  0  0  0  0  0  0  0
   -0.3326   -3.1651    0.0000 H   0  0  0  0  0  0  0  0  0  0  0  0
   -1.9239   -1.7323    0.0000 C   0  0  0  0  0  0  0  0  0  0  0  0
   -1.5912   -3.2973    0.0000 H   0  0  0  0  0  0  0  0  0  0  0  0
   -3.4456   -2.2267    0.0000 H   0  0  0  0  0  0  0  0  0  0  0  0
   -2.5746   -0.2706    0.0000 C   0  0  0  0  0  0  0  0  0  0  0  0
   -3.9603   -1.0706    0.0000 H   0  0  0  0  0  0  0  0  0  0  0  0
   -3.5151    1.0239    0.0000 H   0  0  0  0  0  0  0  0  0  0  0  0
   -1.3857    0.8000    0.0000 C   0  0  0  0  0  0  0  0  0  0  0  0
   -2.5746    1.8706    0.0000 H   0  0  0  0  0  0  0  0  0  0  0  0
   -0.4452    2.0944    0.0000 H   0  0  0  0  0  0  0  0  0  0  0  0
    1.5216   -0.4945    0.0000 C   0  0  0  0  0  0  0  0  0  0  0  0
    2.2105    0.9497    0.0000 H   0  0  0  0  0  0  0  0  0  0  0  0
    3.0299    0.0396    0.0000 H   0  0  0  0  0  0  0  0  0  0  0  0
    2.3695   -1.8513    0.0000 C   0  0  0  0  0  0  0  0  0  0  0  0
    2.2162   -3.4439    0.0000 H   0  0  0  0  0  0  0  0  0  0  0  0
    1.1349   -2.8690    0.0000 H   0  0  0  0  0  0  0  0  0  0  0  0
    3.9686   -1.7955    0.0000 C   0  0  0  0  0  0  0  0  0  0  0  0
    5.5676   -1.7396    0.0000 H   0  0  0  0  0  0  0  0  0  0  0  0
    4.8164   -3.1524    0.0000 H   0  0  0  0  0  0  0  0  0  0  0  0
    4.7197   -0.3827    0.0000 H   0  0  0  0  0  0  0  0  0  0  0  0
  1  2  1  0  0  0  0
  1  3  1  0  0  0  0
  3  4  1  0  0  0  0
  3  5  1  0  0  0  0
  3  6  1  0  0  0  0
  6  7  1  0  0  0  0
  6  8  1  0  0  0  0
  6  9  1  0  0  0  0
  9 10  1  0  0  0  0
  9 11  1  0  0  0  0
  9 12  1  0  0  0  0
 12  1  1  0  0  0  0
 12 13  1  0  0  0  0
 12 14  1  0  0  0  0
  1 15  1  0  0  0  0
 15 16  1  0  0  0  0
 15 17  1  0  0  0  0
 15 18  1  0  0  0  0
 18 19  1  0  0  0  0
 18 20  1  0  0  0  0
 18 21  1  0  0  0  0
 21 22  1  0  0  0  0
 21 23  1  0  0  0  0
 21 24  1  0  0  0  0
M  END
> <ChemID>
104105

> <source_casrn>
2040-96-2

> <CAS>
2040-96-2

> <SMILES>
CCCC1CCCC1

> <NAME>
PROPYLCYCLOPENTANE

> <preferred_name>
Cyclopentane, propyl-

> <iupac>
Propylcyclopentane

> <MPID>
23025

> <dsstox_substance_id>
DTXSID60174352

> <Canonical_QSARr>
CCCC1CCCC1

> <InChI_Code_QSARr>
InChI=1S/C8H16/c1-2-5-8-6-3-4-7-8/h8H,2-7H2,1H3

> <InChI Key_QSARr>
KDIAMAVWIJYWHN-UHFFFAOYSA-N

> <Salt_Solvent>
?

> <BP>
131.0

$$$$
104109
  -INDIGO-08031720192D

 27 26  0  0  0  0  0  0  0  0999 V2000
    4.1569    2.4000    0.0000 O   0  0  0  0  0  0  0  0  0  0  0  0
    4.1569    0.8000    0.0000 C   0  0  0  0  0  0  0  0  0  0  0  0
    5.5425    0.0000    0.0000 O   0  0  0  0  0  0  0  0  0  0  0  0
    6.9283    0.8000    0.0000 C   0  0  0  0  0  0  0  0  0  0  0  0
    6.3158    2.2782    0.0000 H   0  0  0  0  0  0  0  0  0  0  0  0
    7.5406    2.2782    0.0000 H   0  0  0  0  0  0  0  0  0  0  0  0
    8.3139    0.0000    0.0000 C   0  0  0  0  0  0  0  0  0  0  0  0
    9.6995   -0.8000    0.0000 H   0  0  0  0  0  0  0  0  0  0  0  0
    9.6995    0.8000    0.0000 H   0  0  0  0  0  0  0  0  0  0  0  0
    8.3139   -1.6000    0.0000 H   0  0  0  0  0  0  0  0  0  0  0  0
    2.7713    0.0000    0.0000 C   0  0  0  0  0  0  0  0  0  0  0  0
    2.7713   -1.6000    0.0000 H   0  0  0  0  0  0  0  0  0  0  0  0
    1.3858    0.8000    0.0000 C   0  0  0  0  0  0  0  0  0  0  0  0
    1.3858    2.4000    0.0000 H   0  0  0  0  0  0  0  0  0  0  0  0
   -0.0001    0.0000    0.0000 C   0  0  0  0  0  0  0  0  0  0  0  0
    0.6122   -1.4782    0.0000 H   0  0  0  0  0  0  0  0  0  0  0  0
   -0.6123   -1.4782    0.0000 H   0  0  0  0  0  0  0  0  0  0  0  0
   -1.3856    0.8000    0.0000 C   0  0  0  0  0  0  0  0  0  0  0  0
   -1.3856    2.4000    0.0000 O   0  0  0  0  0  0  0  0  0  0  0  0
   -2.7712    0.0000    0.0000 O   0  0  0  0  0  0  0  0  0  0  0  0
   -4.1568    0.8000    0.0000 C   0  0  0  0  0  0  0  0  0  0  0  0
   -4.7693    2.2782    0.0000 H   0  0  0  0  0  0  0  0  0  0  0  0
   -3.5446    2.2782    0.0000 H   0  0  0  0  0  0  0  0  0  0  0  0
   -5.5426    0.0000    0.0000 C   0  0  0  0  0  0  0  0  0  0  0  0
   -6.9282   -0.8000    0.0000 H   0  0  0  0  0  0  0  0  0  0  0  0
   -6.9282    0.8000    0.0000 H   0  0  0  0  0  0  0  0  0  0  0  0
   -5.5426   -1.6000    0.0000 H   0  0  0  0  0  0  0  0  0  0  0  0
  1  2  2  0  0  0  0
  2  3  1  0  0  0  0
  3  4  1  0  0  0  0
  4  5  1  0  0  0  0
  4  6  1  0  0  0  0
  4  7  1  0  0  0  0
  7  8  1  0  0  0  0
  7  9  1  0  0  0  0
  7 10  1  0  0  0  0
  2 11  1  0  0  0  0
 11 12  1  0  0  0  0
 11 13  2  0  0  0  0
 13 14  1  0  0  0  0
 13 15  1  0  0  0  0
 15 16  1  0  0  0  0
 15 17  1  0  0  0  0
 15 18  1  0  0  0  0
 18 19  2  0  0  0  0
 18 20  1  0  0  0  0
 20 21  1  0  0  0  0
 21 22  1  0  0  0  0
 21 23  1  0  0  0  0
 21 24  1  0  0  0  0
 24 25  1  0  0  0  0
 24 26  1  0  0  0  0
 24 27  1  0  0  0  0
M  END
> <ChemID>
104109

> <source_casrn>
2049-67-4

> <CAS>
2049-67-4

> <SMILES>
CCOC(=O)C=CCC(=O)OCC

> <NAME>
2-Pentenedioic acid, diethyl ester

> <preferred_name>
2-Pentenedioic acid, diethyl ester

> <iupac>


> <MPID>
23029

> <dsstox_substance_id>
DTXSID5062130

> <Canonical_QSARr>
CCOC(=O)C=CCC(=O)OCC

> <InChI_Code_QSARr>
InChI=1S/C9H14O4/c1-3-12-8(10)6-5-7-9(11)13-4-2/h5-6H,3-4,7H2,1-2H3/b6-5+

> <InChI Key_QSARr>
JHCKGVJZNIWNJK-AATRIKPKSA-N

> <Salt_Solvent>
?

> <BP>
237.0

$$$$
104113
  -INDIGO-08031720192D

 27 27  0  0  0  0  0  0  0  0999 V2000
   -2.4000    1.3856    0.0000 C   0  0  0  0  0  0  0  0  0  0  0  0
   -1.6000    2.7713    0.0000 H   0  0  0  0  0  0  0  0  0  0  0  0
   -4.0001    1.3856    0.0000 C   0  0  0  0  0  0  0  0  0  0  0  0
   -4.8000    2.7713    0.0000 H   0  0  0  0  0  0  0  0  0  0  0  0
   -4.8000   -0.0000    0.0000 C   0  0  0  0  0  0  0  0  0  0  0  0
   -6.4000    0.0000    0.0000 H   0  0  0  0  0  0  0  0  0  0  0  0
   -4.0001   -1.3856    0.0000 C   0  0  0  0  0  0  0  0  0  0  0  0
   -4.8000   -2.7713    0.0000 H   0  0  0  0  0  0  0  0  0  0  0  0
   -2.4000   -1.3856    0.0000 C   0  0  0  0  0  0  0  0  0  0  0  0
   -1.6000   -2.7713    0.0000 H   0  0  0  0  0  0  0  0  0  0  0  0
   -1.6000   -0.0000    0.0000 C   0  0  0  0  0  0  0  0  0  0  0  0
   -0.0000    0.0000    0.0000 C   0  0  0  0  0  0  0  0  0  0  0  0
   -0.2779   -1.5757    0.0000 C   0  0  0  0  0  0  0  0  0  0  0  0
    0.9478   -2.6042    0.0000 H   0  0  0  0  0  0  0  0  0  0  0  0
   -0.5556   -3.1514    0.0000 H   0  0  0  0  0  0  0  0  0  0  0  0
    1.2257   -1.0284    0.0000 H   0  0  0  0  0  0  0  0  0  0  0  0
   -0.2779    1.5757    0.0000 C   0  0  0  0  0  0  0  0  0  0  0  0
   -0.5556    3.1514    0.0000 H   0  0  0  0  0  0  0  0  0  0  0  0
    0.9478    2.6042    0.0000 H   0  0  0  0  0  0  0  0  0  0  0  0
    1.2257    1.0284    0.0000 H   0  0  0  0  0  0  0  0  0  0  0  0
    1.6001    0.0000    0.0000 C   0  0  0  0  0  0  0  0  0  0  0  0
    2.8693    0.9740    0.0000 H   0  0  0  0  0  0  0  0  0  0  0  0
    2.0811    1.5259    0.0000 H   0  0  0  0  0  0  0  0  0  0  0  0
    2.4001   -1.3856    0.0000 C   0  0  0  0  0  0  0  0  0  0  0  0
    4.0000   -1.3856    0.0000 H   0  0  0  0  0  0  0  0  0  0  0  0
    3.2000   -2.7713    0.0000 H   0  0  0  0  0  0  0  0  0  0  0  0
    3.2000    0.0000    0.0000 H   0  0  0  0  0  0  0  0  0  0  0  0
  1  2  1  0  0  0  0
  1  3  1  0  0  0  0
  3  4  1  0  0  0  0
  3  5  2  0  0  0  0
  5  6  1  0  0  0  0
  5  7  1  0  0  0  0
  7  8  1  0  0  0  0
  7  9  2  0  0  0  0
  9 10  1  0  0  0  0
  9 11  1  0  0  0  0
 11  1  2  0  0  0  0
 11 12  1  0  0  0  0
 12 13  1  0  0  0  0
 13 14  1  0  0  0  0
 13 15  1  0  0  0  0
 13 16  1  0  0  0  0
 12 17  1  0  0  0  0
 17 18  1  0  0  0  0
 17 19  1  0  0  0  0
 17 20  1  0  0  0  0
 12 21  1  0  0  0  0
 21 22  1  0  0  0  0
 21 23  1  0  0  0  0
 21 24  1  0  0  0  0
 24 25  1  0  0  0  0
 24 26  1  0  0  0  0
 24 27  1  0  0  0  0
M  END
> <ChemID>
104113

> <source_casrn>
2049-95-8

> <CAS>
2049-95-8

> <SMILES>
CCC(C)(C)c1ccccc1

> <NAME>
Benzene, (1,1-dimethylpropyl)-

> <preferred_name>
tert-Pentylbenzene

> <iupac>
(2-methylbutan-2-yl)benzene

> <MPID>
23033

> <dsstox_substance_id>
DTXSID7051848

> <Canonical_QSARr>
CCC(C)(C)c1ccccc1

> <InChI_Code_QSARr>
InChI=1S/C11H16/c1-4-11(2,3)10-8-6-5-7-9-10/h5-9H,4H2,1-3H3

> <InChI Key_QSARr>
QHTJSSMHBLGUHV-UHFFFAOYSA-N

> <Salt_Solvent>
?

> <BP>
192.4

$$$$
104117
  -INDIGO-08031720192D

 29 29  0  0  0  0  0  0  0  0999 V2000
   -2.7714   -0.0000    0.0000 C   0  0  0  0  0  0  0  0  0  0  0  0
   -2.7712    1.6000    0.0000 O   0  0  0  0  0  0  0  0  0  0  0  0
   -4.1569   -0.8000    0.0000 C   0  0  0  0  0  0  0  0  0  0  0  0
   -5.5427   -0.0000    0.0000 C   0  0  0  0  0  0  0  0  0  0  0  0
   -5.5427    1.6000    0.0000 H   0  0  0  0  0  0  0  0  0  0  0  0
   -6.9282   -0.8000    0.0000 C   0  0  0  0  0  0  0  0  0  0  0  0
   -8.3139   -0.0000    0.0000 H   0  0  0  0  0  0  0  0  0  0  0  0
   -6.9282   -2.4000    0.0000 C   0  0  0  0  0  0  0  0  0  0  0  0
   -8.3139   -3.2000    0.0000 C   0  0  0  0  0  0  0  0  0  0  0  0
   -9.6995   -4.0000    0.0000 H   0  0  0  0  0  0  0  0  0  0  0  0
   -9.6995   -2.4000    0.0000 H   0  0  0  0  0  0  0  0  0  0  0  0
   -8.3139   -4.8000    0.0000 H   0  0  0  0  0  0  0  0  0  0  0  0
   -5.5427   -3.2000    0.0000 C   0  0  0  0  0  0  0  0  0  0  0  0
   -5.5427   -4.8000    0.0000 H   0  0  0  0  0  0  0  0  0  0  0  0
   -4.1569   -2.4000    0.0000 C   0  0  0  0  0  0  0  0  0  0  0  0
   -2.7714   -3.2000    0.0000 H   0  0  0  0  0  0  0  0  0  0  0  0
   -1.3856   -0.8000    0.0000 C   0  0  0  0  0  0  0  0  0  0  0  0
   -0.7733   -2.2782    0.0000 H   0  0  0  0  0  0  0  0  0  0  0  0
   -1.9980   -2.2782    0.0000 H   0  0  0  0  0  0  0  0  0  0  0  0
    0.0001   -0.0000    0.0000 C   0  0  0  0  0  0  0  0  0  0  0  0
   -0.6122    1.4782    0.0000 H   0  0  0  0  0  0  0  0  0  0  0  0
    0.6122    1.4782    0.0000 H   0  0  0  0  0  0  0  0  0  0  0  0
    1.3856   -0.8000    0.0000 C   0  0  0  0  0  0  0  0  0  0  0  0
    1.9980   -2.2782    0.0000 H   0  0  0  0  0  0  0  0  0  0  0  0
    0.7733   -2.2782    0.0000 H   0  0  0  0  0  0  0  0  0  0  0  0
    2.7714   -0.0000    0.0000 C   0  0  0  0  0  0  0  0  0  0  0  0
    4.1569    0.8000    0.0000 H   0  0  0  0  0  0  0  0  0  0  0  0
    4.1569   -0.8000    0.0000 H   0  0  0  0  0  0  0  0  0  0  0  0
    2.7714    1.6000    0.0000 H   0  0  0  0  0  0  0  0  0  0  0  0
  1  2  2  0  0  0  0
  1  3  1  0  0  0  0
  3  4  1  0  0  0  0
  4  5  1  0  0  0  0
  4  6  2  0  0  0  0
  6  7  1  0  0  0  0
  6  8  1  0  0  0  0
  8  9  1  0  0  0  0
  9 10  1  0  0  0  0
  9 11  1  0  0  0  0
  9 12  1  0  0  0  0
  8 13  2  0  0  0  0
 13 14  1  0  0  0  0
 13 15  1  0  0  0  0
 15  3  2  0  0  0  0
 15 16  1  0  0  0  0
  1 17  1  0  0  0  0
 17 18  1  0  0  0  0
 17 19  1  0  0  0  0
 17 20  1  0  0  0  0
 20 21  1  0  0  0  0
 20 22  1  0  0  0  0
 20 23  1  0  0  0  0
 23 24  1  0  0  0  0
 23 25  1  0  0  0  0
 23 26  1  0  0  0  0
 26 27  1  0  0  0  0
 26 28  1  0  0  0  0
 26 29  1  0  0  0  0
M  END
> <ChemID>
104117

> <source_casrn>
2050-07-9

> <CAS>
NOCAS_870926

> <SMILES>
Cc1ccc(cc1)C(=O)CCCC

> <NAME>
4-Methylphenyl butyl ketone

> <preferred_name>
4-Methyl-1-phenylpentan-1-one

> <iupac>
4-Methyl-1-phenylpentan-1-one

> <MPID>
23037

> <dsstox_substance_id>
DTXSID40870926

> <Canonical_QSARr>
Cc1ccc(cc1)C(=O)CCCC

> <InChI_Code_QSARr>
InChI=1S/C12H16O/c1-3-4-5-12(13)11-8-6-10(2)7-9-11/h6-9H,3-5H2,1-2H3

> <InChI Key_QSARr>
BCVCZJADTSTKNH-UHFFFAOYSA-N

> <Salt_Solvent>
?

> <BP>
255.5

$$$$
104121
  -INDIGO-08031720192D

 27 27  0  0  0  0  0  0  0  0999 V2000
    0.0001    0.0001    0.0000 C   0  0  0  0  0  0  0  0  0  0  0  0
    1.3857    0.8000    0.0000 C   0  0  0  0  0  0  0  0  0  0  0  0
    1.3857    2.4000    0.0000 H   0  0  0  0  0  0  0  0  0  0  0  0
    2.7712    0.0001    0.0000 C   0  0  0  0  0  0  0  0  0  0  0  0
    4.1569    0.8000    0.0000 C   0  0  0  0  0  0  0  0  0  0  0  0
    4.7692    2.2782    0.0000 H   0  0  0  0  0  0  0  0  0  0  0  0
    3.5446    2.2782    0.0000 H   0  0  0  0  0  0  0  0  0  0  0  0
    5.5425    0.0001    0.0000 C   0  0  0  0  0  0  0  0  0  0  0  0
    6.9282    0.8000    0.0000 H   0  0  0  0  0  0  0  0  0  0  0  0
    6.9282   -0.8000    0.0000 H   0  0  0  0  0  0  0  0  0  0  0  0
    5.5425    1.6001    0.0000 H   0  0  0  0  0  0  0  0  0  0  0  0
    2.7712   -1.5999    0.0000 C   0  0  0  0  0  0  0  0  0  0  0  0
    4.1569   -2.4000    0.0000 H   0  0  0  0  0  0  0  0  0  0  0  0
    1.3857   -2.4000    0.0000 C   0  0  0  0  0  0  0  0  0  0  0  0
    1.3857   -4.0000    0.0000 C   0  0  0  0  0  0  0  0  0  0  0  0
    1.3856   -5.6000    0.0000 H   0  0  0  0  0  0  0  0  0  0  0  0
    2.7712   -4.8001    0.0000 H   0  0  0  0  0  0  0  0  0  0  0  0
    0.0001   -4.8001    0.0000 H   0  0  0  0  0  0  0  0  0  0  0  0
    0.0001   -1.5999    0.0000 C   0  0  0  0  0  0  0  0  0  0  0  0
   -1.3856   -2.4000    0.0000 H   0  0  0  0  0  0  0  0  0  0  0  0
   -1.3856    0.8000    0.0000 C   0  0  0  0  0  0  0  0  0  0  0  0
   -0.7733    2.2782    0.0000 H   0  0  0  0  0  0  0  0  0  0  0  0
   -1.9979    2.2782    0.0000 H   0  0  0  0  0  0  0  0  0  0  0  0
   -2.7713   -0.0001    0.0000 C   0  0  0  0  0  0  0  0  0  0  0  0
   -4.1569    0.8000    0.0000 H   0  0  0  0  0  0  0  0  0  0  0  0
   -4.1569   -0.8000    0.0000 H   0  0  0  0  0  0  0  0  0  0  0  0
   -2.7713    1.6001    0.0000 H   0  0  0  0  0  0  0  0  0  0  0  0
  1  2  1  0  0  0  0
  2  3  1  0  0  0  0
  2  4  2  0  0  0  0
  4  5  1  0  0  0  0
  5  6  1  0  0  0  0
  5  7  1  0  0  0  0
  5  8  1  0  0  0  0
  8  9  1  0  0  0  0
  8 10  1  0  0  0  0
  8 11  1  0  0  0  0
  4 12  1  0  0  0  0
 12 13  1  0  0  0  0
 12 14  2  0  0  0  0
 14 15  1  0  0  0  0
 15 16  1  0  0  0  0
 15 17  1  0  0  0  0
 15 18  1  0  0  0  0
 14 19  1  0  0  0  0
 19  1  2  0  0  0  0
 19 20  1  0  0  0  0
  1 21  1  0  0  0  0
 21 22  1  0  0  0  0
 21 23  1  0  0  0  0
 21 24  1  0  0  0  0
 24 25  1  0  0  0  0
 24 26  1  0  0  0  0
 24 27  1  0  0  0  0
M  END
> <ChemID>
104121

> <source_casrn>
2050-24-0

> <CAS>
2050-24-0

> <SMILES>
Cc1cc(CC)cc(CC)c1

> <NAME>
1,3-DIETHYL-5-METHYLBENZENE

> <preferred_name>
3,5-Diethyltoluene

> <iupac>
1,3-Diethyl-5-methylbenzene

> <MPID>
23041

> <dsstox_substance_id>
DTXSID0062133

> <Canonical_QSARr>
Cc1cc(CC)cc(CC)c1

> <InChI_Code_QSARr>
InChI=1S/C11H16/c1-4-10-6-9(3)7-11(5-2)8-10/h6-8H,4-5H2,1-3H3

> <InChI Key_QSARr>
HILAULICMJUOLK-UHFFFAOYSA-N

> <Salt_Solvent>
?

> <BP>
205.0

$$$$
104125
  -INDIGO-08031720192D

 32 31  0  0  0  0  0  0  0  0999 V2000
    6.9282   -0.8000    0.0000 O   0  0  0  0  0  0  0  0  0  0  0  0
    8.3139    0.0000    0.0000 C   0  0  0  0  0  0  0  0  0  0  0  0
    8.9260    1.4782    0.0000 H   0  0  0  0  0  0  0  0  0  0  0  0
    7.7015    1.4782    0.0000 H   0  0  0  0  0  0  0  0  0  0  0  0
    9.6996   -0.8000    0.0000 C   0  0  0  0  0  0  0  0  0  0  0  0
   10.4994    0.5857    0.0000 H   0  0  0  0  0  0  0  0  0  0  0  0
   11.0851   -1.6000    0.0000 C   0  0  0  0  0  0  0  0  0  0  0  0
   12.4708   -2.4000    0.0000 H   0  0  0  0  0  0  0  0  0  0  0  0
   11.0851   -3.2000    0.0000 H   0  0  0  0  0  0  0  0  0  0  0  0
   12.4708   -0.8000    0.0000 H   0  0  0  0  0  0  0  0  0  0  0  0
    8.8995   -2.1857    0.0000 C   0  0  0  0  0  0  0  0  0  0  0  0
    8.0994   -3.5713    0.0000 H   0  0  0  0  0  0  0  0  0  0  0  0
    7.2994   -2.1857    0.0000 H   0  0  0  0  0  0  0  0  0  0  0  0
    9.6996   -3.5713    0.0000 H   0  0  0  0  0  0  0  0  0  0  0  0
    5.5425    0.0000    0.0000 C   0  0  0  0  0  0  0  0  0  0  0  0
    5.5425    1.6000    0.0000 O   0  0  0  0  0  0  0  0  0  0  0  0
    4.1570   -0.8000    0.0000 C   0  0  0  0  0  0  0  0  0  0  0  0
    2.7713    0.0000    0.0000 O   0  0  0  0  0  0  0  0  0  0  0  0
    1.3856   -0.8000    0.0000 C   0  0  0  0  0  0  0  0  0  0  0  0
    0.7735   -2.2782    0.0000 H   0  0  0  0  0  0  0  0  0  0  0  0
    1.9980   -2.2782    0.0000 H   0  0  0  0  0  0  0  0  0  0  0  0
   -0.0001    0.0000    0.0000 C   0  0  0  0  0  0  0  0  0  0  0  0
   -0.7999   -1.3857    0.0000 H   0  0  0  0  0  0  0  0  0  0  0  0
   -1.3856    0.8000    0.0000 C   0  0  0  0  0  0  0  0  0  0  0  0
   -2.7713    1.6000    0.0000 H   0  0  0  0  0  0  0  0  0  0  0  0
   -2.7713    0.0000    0.0000 H   0  0  0  0  0  0  0  0  0  0  0  0
   -1.3856    2.4000    0.0000 H   0  0  0  0  0  0  0  0  0  0  0  0
    0.8000    1.3857    0.0000 C   0  0  0  0  0  0  0  0  0  0  0  0
    1.6000    2.7713    0.0000 H   0  0  0  0  0  0  0  0  0  0  0  0
    2.4001    1.3857    0.0000 H   0  0  0  0  0  0  0  0  0  0  0  0
   -0.0001    2.7713    0.0000 H   0  0  0  0  0  0  0  0  0  0  0  0
    4.1570   -2.4000    0.0000 O   0  0  0  0  0  0  0  0  0  0  0  0
  1  2  1  0  0  0  0
  2  3  1  0  0  0  0
  2  4  1  0  0  0  0
  2  5  1  0  0  0  0
  5  6  1  0  0  0  0
  5  7  1  0  0  0  0
  7  8  1  0  0  0  0
  7  9  1  0  0  0  0
  7 10  1  0  0  0  0
  5 11  1  0  0  0  0
 11 12  1  0  0  0  0
 11 13  1  0  0  0  0
 11 14  1  0  0  0  0
  1 15  1  0  0  0  0
 15 16  2  0  0  0  0
 15 17  1  0  0  0  0
 17 18  1  0  0  0  0
 18 19  1  0  0  0  0
 19 20  1  0  0  0  0
 19 21  1  0  0  0  0
 19 22  1  0  0  0  0
 22 23  1  0  0  0  0
 22 24  1  0  0  0  0
 24 25  1  0  0  0  0
 24 26  1  0  0  0  0
 24 27  1  0  0  0  0
 22 28  1  0  0  0  0
 28 29  1  0  0  0  0
 28 30  1  0  0  0  0
 28 31  1  0  0  0  0
 17 32  2  0  0  0  0
M  END
> <ChemID>
104125

> <source_casrn>
2050-61-5

> <CAS>
2050-61-5

> <SMILES>
CC(C)COC(=O)C(=O)OCC(C)C

> <NAME>
Oxalic acid diisobutyl ester

> <preferred_name>
diisobutyl oxalate

> <iupac>
C10H18O4

> <MPID>
23045

> <dsstox_substance_id>
DTXSID80290220

> <Canonical_QSARr>
CC(C)COC(=O)C(=O)OCC(C)C

> <InChI_Code_QSARr>
InChI=1S/C10H18O4/c1-7(2)5-13-9(11)10(12)14-6-8(3)4/h7-8H,5-6H2,1-4H3

> <InChI Key_QSARr>
GJRRTUSXQPXVES-UHFFFAOYSA-N

> <Salt_Solvent>
?

> <BP>
229.0

$$$$
104129
  -INDIGO-08031720192D

 18 19  0  0  0  0  0  0  0  0999 V2000
    0.0001   -0.0000    0.0000 C   0  0  0  0  0  0  0  0  0  0  0  0
    1.3856    0.8000    0.0000 C   0  0  0  0  0  0  0  0  0  0  0  0
    1.3856    2.4000    0.0000 H   0  0  0  0  0  0  0  0  0  0  0  0
    2.7713   -0.0000    0.0000 C   0  0  0  0  0  0  0  0  0  0  0  0
    4.1569    0.8000    0.0000 Cl  0  0  0  0  0  0  0  0  0  0  0  0
    2.7713   -1.6000    0.0000 C   0  0  0  0  0  0  0  0  0  0  0  0
    4.1569   -2.4000    0.0000 H   0  0  0  0  0  0  0  0  0  0  0  0
    1.3856   -2.4000    0.0000 C   0  0  0  0  0  0  0  0  0  0  0  0
    1.3856   -4.0000    0.0000 H   0  0  0  0  0  0  0  0  0  0  0  0
    0.0001   -1.6000    0.0000 C   0  0  0  0  0  0  0  0  0  0  0  0
   -1.3856   -2.4000    0.0000 C   0  0  0  0  0  0  0  0  0  0  0  0
   -1.3856   -4.0000    0.0000 H   0  0  0  0  0  0  0  0  0  0  0  0
   -2.7712   -1.6000    0.0000 C   0  0  0  0  0  0  0  0  0  0  0  0
   -4.1569   -2.4000    0.0000 H   0  0  0  0  0  0  0  0  0  0  0  0
   -2.7712   -0.0000    0.0000 C   0  0  0  0  0  0  0  0  0  0  0  0
   -4.1569    0.8000    0.0000 H   0  0  0  0  0  0  0  0  0  0  0  0
   -1.3856    0.8000    0.0000 C   0  0  0  0  0  0  0  0  0  0  0  0
   -1.3856    2.4000    0.0000 Cl  0  0  0  0  0  0  0  0  0  0  0  0
  1  2  1  0  0  0  0
  2  3  1  0  0  0  0
  2  4  2  0  0  0  0
  4  5  1  0  0  0  0
  4  6  1  0  0  0  0
  6  7  1  0  0  0  0
  6  8  2  0  0  0  0
  8  9  1  0  0  0  0
  8 10  1  0  0  0  0
 10  1  1  0  0  0  0
 10 11  2  0  0  0  0
 11 12  1  0  0  0  0
 11 13  1  0  0  0  0
 13 14  1  0  0  0  0
 13 15  2  0  0  0  0
 15 16  1  0  0  0  0
 15 17  1  0  0  0  0
 17  1  2  0  0  0  0
 17 18  1  0  0  0  0
M  END
> <ChemID>
104129

> <source_casrn>
2050-73-9

> <CAS>
2050-73-9

> <SMILES>
Clc1cc2c(cc1)cccc2Cl

> <NAME>
NAPHTHALENE, 1,7-DICHLORO-

> <preferred_name>
Naphthalene, 1,7-dichloro-

> <iupac>
1,7-DICHLORONAPHTHALENE

> <MPID>
23049

> <dsstox_substance_id>
DTXSID5062138

> <Canonical_QSARr>
Clc1cc2c(cc1)cccc2Cl

> <InChI_Code_QSARr>
InChI=1S/C10H6Cl2/c11-8-5-4-7-2-1-3-10(12)9(7)6-8/h1-6H

> <InChI Key_QSARr>
VQBIYCQGHAHVPN-UHFFFAOYSA-N

> <Salt_Solvent>
?

> <BP>
285.5

$$$$
104133
  -INDIGO-08031720192D

 34 33  0  0  0  0  0  0  0  0999 V2000
    4.2327    0.0660    0.0000 S   0  0  0  0  0  0  0  0  0  0  0  0
    5.4584   -0.9624    0.0000 S   0  0  0  0  0  0  0  0  0  0  0  0
    6.9619   -0.4153    0.0000 C   0  0  0  0  0  0  0  0  0  0  0  0
    6.6155    1.1469    0.0000 H   0  0  0  0  0  0  0  0  0  0  0  0
    7.8215    0.9342    0.0000 H   0  0  0  0  0  0  0  0  0  0  0  0
    8.1876   -1.4437    0.0000 C   0  0  0  0  0  0  0  0  0  0  0  0
    8.5339   -3.0058    0.0000 H   0  0  0  0  0  0  0  0  0  0  0  0
    7.3280   -2.7931    0.0000 H   0  0  0  0  0  0  0  0  0  0  0  0
    9.6911   -0.8964    0.0000 C   0  0  0  0  0  0  0  0  0  0  0  0
    8.8910    0.4892    0.0000 H   0  0  0  0  0  0  0  0  0  0  0  0
   11.0767   -0.0964    0.0000 C   0  0  0  0  0  0  0  0  0  0  0  0
   12.4623    0.7035    0.0000 H   0  0  0  0  0  0  0  0  0  0  0  0
   12.4623   -0.8964    0.0000 H   0  0  0  0  0  0  0  0  0  0  0  0
   11.0767    1.5035    0.0000 H   0  0  0  0  0  0  0  0  0  0  0  0
   10.4912   -2.2821    0.0000 C   0  0  0  0  0  0  0  0  0  0  0  0
   11.2910   -3.6677    0.0000 H   0  0  0  0  0  0  0  0  0  0  0  0
    9.6911   -3.6677    0.0000 H   0  0  0  0  0  0  0  0  0  0  0  0
   12.0911   -2.2821    0.0000 H   0  0  0  0  0  0  0  0  0  0  0  0
    2.7292   -0.4812    0.0000 C   0  0  0  0  0  0  0  0  0  0  0  0
    3.0755   -2.0433    0.0000 H   0  0  0  0  0  0  0  0  0  0  0  0
    1.8696   -1.8307    0.0000 H   0  0  0  0  0  0  0  0  0  0  0  0
    1.5035    0.5472    0.0000 C   0  0  0  0  0  0  0  0  0  0  0  0
    1.1571    2.1094    0.0000 H   0  0  0  0  0  0  0  0  0  0  0  0
    2.3631    1.8966    0.0000 H   0  0  0  0  0  0  0  0  0  0  0  0
   -0.0000   -0.0000    0.0000 C   0  0  0  0  0  0  0  0  0  0  0  0
    0.8001   -1.3856    0.0000 H   0  0  0  0  0  0  0  0  0  0  0  0
   -1.3856   -0.8000    0.0000 C   0  0  0  0  0  0  0  0  0  0  0  0
   -2.7713   -1.6000    0.0000 H   0  0  0  0  0  0  0  0  0  0  0  0
   -1.3856   -2.4000    0.0000 H   0  0  0  0  0  0  0  0  0  0  0  0
   -2.7713   -0.0000    0.0000 H   0  0  0  0  0  0  0  0  0  0  0  0
   -0.8001    1.3856    0.0000 C   0  0  0  0  0  0  0  0  0  0  0  0
   -1.6000    2.7713    0.0000 H   0  0  0  0  0  0  0  0  0  0  0  0
   -0.0000    2.7713    0.0000 H   0  0  0  0  0  0  0  0  0  0  0  0
   -2.4001    1.3856    0.0000 H   0  0  0  0  0  0  0  0  0  0  0  0
  1  2  1  0  0  0  0
  2  3  1  0  0  0  0
  3  4  1  0  0  0  0
  3  5  1  0  0  0  0
  3  6  1  0  0  0  0
  6  7  1  0  0  0  0
  6  8  1  0  0  0  0
  6  9  1  0  0  0  0
  9 10  1  0  0  0  0
  9 11  1  0  0  0  0
 11 12  1  0  0  0  0
 11 13  1  0  0  0  0
 11 14  1  0  0  0  0
  9 15  1  0  0  0  0
 15 16  1  0  0  0  0
 15 17  1  0  0  0  0
 15 18  1  0  0  0  0
  1 19  1  0  0  0  0
 19 20  1  0  0  0  0
 19 21  1  0  0  0  0
 19 22  1  0  0  0  0
 22 23  1  0  0  0  0
 22 24  1  0  0  0  0
 22 25  1  0  0  0  0
 25 26  1  0  0  0  0
 25 27  1  0  0  0  0
 27 28  1  0  0  0  0
 27 29  1  0  0  0  0
 27 30  1  0  0  0  0
 25 31  1  0  0  0  0
 31 32  1  0  0  0  0
 31 33  1  0  0  0  0
 31 34  1  0  0  0  0
M  END
> <ChemID>
104133

> <source_casrn>
2051-04-9

> <CAS>
2051-04-9

> <SMILES>
CC(C)CCSSCCC(C)C

> <NAME>
DISULFIDE, BIS(3-METHYLBUTYL)

> <preferred_name>
Diisoamyl disulfide

> <iupac>
3-methyl-1-(3-methylbutyldisulfanyl)butane

> <MPID>
23053

> <dsstox_substance_id>
DTXSID90174507

> <Canonical_QSARr>
CC(C)CCSSCCC(C)C

> <InChI_Code_QSARr>
InChI=1S/C10H22S2/c1-9(2)5-7-11-12-8-6-10(3)4/h9-10H,5-8H2,1-4H3

> <InChI Key_QSARr>
MPYGLNNTOXLWOB-UHFFFAOYSA-N

> <Salt_Solvent>
?

> <BP>
247.0

$$$$
104137
  -INDIGO-08031720192D

 33 32  0  0  0  0  0  0  0  0999 V2000
    0.0000    1.5999    0.0000 C   0  0  0  0  0  0  0  0  0  0  0  0
    0.9740    2.8693    0.0000 H   0  0  0  0  0  0  0  0  0  0  0  0
    1.5863    1.8088    0.0000 H   0  0  0  0  0  0  0  0  0  0  0  0
    0.0000   -0.0000    0.0000 C   0  0  0  0  0  0  0  0  0  0  0  0
    0.0000   -1.6000    0.0000 H   0  0  0  0  0  0  0  0  0  0  0  0
    1.5757   -0.2778    0.0000 C   0  0  0  0  0  0  0  0  0  0  0  0
    2.1881   -1.7561    0.0000 H   0  0  0  0  0  0  0  0  0  0  0  0
    0.9634   -1.7561    0.0000 H   0  0  0  0  0  0  0  0  0  0  0  0
    3.0791    0.2694    0.0000 C   0  0  0  0  0  0  0  0  0  0  0  0
    2.7330    1.8315    0.0000 H   0  0  0  0  0  0  0  0  0  0  0  0
    3.9389    1.6188    0.0000 H   0  0  0  0  0  0  0  0  0  0  0  0
    4.3049   -0.7590    0.0000 C   0  0  0  0  0  0  0  0  0  0  0  0
    3.2764   -1.9847    0.0000 H   0  0  0  0  0  0  0  0  0  0  0  0
    5.5305   -1.7875    0.0000 C   0  0  0  0  0  0  0  0  0  0  0  0
    6.7562   -2.8160    0.0000 H   0  0  0  0  0  0  0  0  0  0  0  0
    7.0341   -1.2403    0.0000 H   0  0  0  0  0  0  0  0  0  0  0  0
    5.2528   -3.3632    0.0000 H   0  0  0  0  0  0  0  0  0  0  0  0
    5.3334    0.4666    0.0000 C   0  0  0  0  0  0  0  0  0  0  0  0
    6.3618    1.6923    0.0000 H   0  0  0  0  0  0  0  0  0  0  0  0
    6.9091    0.1888    0.0000 H   0  0  0  0  0  0  0  0  0  0  0  0
    5.0555    2.0423    0.0000 H   0  0  0  0  0  0  0  0  0  0  0  0
   -1.6000   -0.0000    0.0000 C   0  0  0  0  0  0  0  0  0  0  0  0
   -1.3221    1.5757    0.0000 H   0  0  0  0  0  0  0  0  0  0  0  0
   -3.1757    0.2778    0.0000 C   0  0  0  0  0  0  0  0  0  0  0  0
   -4.7514    0.5556    0.0000 H   0  0  0  0  0  0  0  0  0  0  0  0
   -3.7229    1.7813    0.0000 H   0  0  0  0  0  0  0  0  0  0  0  0
   -4.2041   -0.9478    0.0000 H   0  0  0  0  0  0  0  0  0  0  0  0
   -1.8778   -1.5757    0.0000 C   0  0  0  0  0  0  0  0  0  0  0  0
   -2.1557   -3.1513    0.0000 H   0  0  0  0  0  0  0  0  0  0  0  0
   -3.3814   -2.1229    0.0000 H   0  0  0  0  0  0  0  0  0  0  0  0
   -0.6522   -2.6041    0.0000 H   0  0  0  0  0  0  0  0  0  0  0  0
   -1.2257    2.6284    0.0000 O   0  0  0  0  0  0  0  0  0  0  0  0
   -0.9479    4.2042    0.0000 H   0  0  0  0  0  0  0  0  0  0  0  0
  1  2  1  0  0  0  0
  1  3  1  0  0  0  0
  1  4  1  0  0  0  0
  4  5  1  0  0  0  0
  4  6  1  0  0  0  0
  6  7  1  0  0  0  0
  6  8  1  0  0  0  0
  6  9  1  0  0  0  0
  9 10  1  0  0  0  0
  9 11  1  0  0  0  0
  9 12  1  0  0  0  0
 12 13  1  0  0  0  0
 12 14  1  0  0  0  0
 14 15  1  0  0  0  0
 14 16  1  0  0  0  0
 14 17  1  0  0  0  0
 12 18  1  0  0  0  0
 18 19  1  0  0  0  0
 18 20  1  0  0  0  0
 18 21  1  0  0  0  0
  4 22  1  0  0  0  0
 22 23  1  0  0  0  0
 22 24  1  0  0  0  0
 24 25  1  0  0  0  0
 24 26  1  0  0  0  0
 24 27  1  0  0  0  0
 22 28  1  0  0  0  0
 28 29  1  0  0  0  0
 28 30  1  0  0  0  0
 28 31  1  0  0  0  0
  1 32  1  0  0  0  0
 32 33  1  0  0  0  0
M  END
> <ChemID>
104137

> <source_casrn>
2051-33-4

> <CAS>
NOCAS_870928

> <SMILES>
CC(C)CCC(CO)C(C)C

> <NAME>
2-Isopropyl-5-methyl-hexan-1-ol

> <preferred_name>


> <iupac>


> <MPID>
23057

> <dsstox_substance_id>
DTXSID60870928

> <Canonical_QSARr>
CC(C)CCC(CO)C(C)C

> <InChI_Code_QSARr>
InChI=1S/C10H22O/c1-8(2)5-6-10(7-11)9(3)4/h8-11H,5-7H2,1-4H3

> <InChI Key_QSARr>
SFIQHFBITUEIBP-UHFFFAOYSA-N

> <Salt_Solvent>
?

> <BP>
211.0

$$$$
104141
  -INDIGO-08031720192D

 21 20  0  0  0  0  0  0  0  0999 V2000
    2.7713    0.0000    0.0000 C   0  0  0  0  0  0  0  0  0  0  0  0
    2.7713   -1.6000    0.0000 O   0  0  0  0  0  0  0  0  0  0  0  0
    4.1569    0.8000    0.0000 O   0  0  0  0  0  0  0  0  0  0  0  0
    5.5426    0.0000    0.0000 C   0  0  0  0  0  0  0  0  0  0  0  0
    6.1549   -1.4782    0.0000 H   0  0  0  0  0  0  0  0  0  0  0  0
    4.9302   -1.4782    0.0000 H   0  0  0  0  0  0  0  0  0  0  0  0
    6.9283    0.8000    0.0000 C   0  0  0  0  0  0  0  0  0  0  0  0
    6.9283    2.4000    0.0000 H   0  0  0  0  0  0  0  0  0  0  0  0
    8.3138    0.0000    0.0000 C   0  0  0  0  0  0  0  0  0  0  0  0
    9.6995    0.8000    0.0000 H   0  0  0  0  0  0  0  0  0  0  0  0
    8.3138   -1.6000    0.0000 H   0  0  0  0  0  0  0  0  0  0  0  0
    1.3856    0.8000    0.0000 C   0  0  0  0  0  0  0  0  0  0  0  0
    0.7733    2.2782    0.0000 H   0  0  0  0  0  0  0  0  0  0  0  0
    1.9980    2.2782    0.0000 H   0  0  0  0  0  0  0  0  0  0  0  0
   -0.0001    0.0000    0.0000 C   0  0  0  0  0  0  0  0  0  0  0  0
    0.6123   -1.4782    0.0000 H   0  0  0  0  0  0  0  0  0  0  0  0
   -0.6122   -1.4782    0.0000 H   0  0  0  0  0  0  0  0  0  0  0  0
   -1.3856    0.8000    0.0000 C   0  0  0  0  0  0  0  0  0  0  0  0
   -2.7713    1.6000    0.0000 H   0  0  0  0  0  0  0  0  0  0  0  0
   -2.7713    0.0000    0.0000 H   0  0  0  0  0  0  0  0  0  0  0  0
   -1.3856    2.4000    0.0000 H   0  0  0  0  0  0  0  0  0  0  0  0
  1  2  2  0  0  0  0
  1  3  1  0  0  0  0
  3  4  1  0  0  0  0
  4  5  1  0  0  0  0
  4  6  1  0  0  0  0
  4  7  1  0  0  0  0
  7  8  1  0  0  0  0
  7  9  2  0  0  0  0
  9 10  1  0  0  0  0
  9 11  1  0  0  0  0
  1 12  1  0  0  0  0
 12 13  1  0  0  0  0
 12 14  1  0  0  0  0
 12 15  1  0  0  0  0
 15 16  1  0  0  0  0
 15 17  1  0  0  0  0
 15 18  1  0  0  0  0
 18 19  1  0  0  0  0
 18 20  1  0  0  0  0
 18 21  1  0  0  0  0
M  END
> <ChemID>
104141

> <source_casrn>
2051-78-7

> <CAS>
2051-78-7

> <SMILES>
CCCC(=O)OCC=C

> <NAME>
BUTANOIC ACID, 2-PROPENYL ESTER

> <preferred_name>
Allyl butyrate

> <iupac>
prop-2-en-1-yl butanoate

> <MPID>
23061

> <dsstox_substance_id>
DTXSID0047666

> <Canonical_QSARr>
CCCC(=O)OCC=C

> <InChI_Code_QSARr>
InChI=1S/C7H12O2/c1-3-5-7(8)9-6-4-2/h4H,2-3,5-6H2,1H3

> <InChI Key_QSARr>
RMZIOVJHUJAAEY-UHFFFAOYSA-N

> <Salt_Solvent>
?

> <BP>
142.0

$$$$
104145
  -INDIGO-08031720192D

 26 26  0  0  0  0  0  0  0  0999 V2000
   -1.6000    0.0000    0.0000 C   0  0  0  0  0  0  0  0  0  0  0  0
   -0.0000    0.0000    0.0000 N   0  0  0  0  0  0  0  0  0  0  0  0
    0.7999    1.3856    0.0000 C   0  0  0  0  0  0  0  0  0  0  0  0
   -0.4693    2.3596    0.0000 H   0  0  0  0  0  0  0  0  0  0  0  0
    0.5911    2.9720    0.0000 H   0  0  0  0  0  0  0  0  0  0  0  0
    2.4000    1.3856    0.0000 C   0  0  0  0  0  0  0  0  0  0  0  0
    4.0000    1.3856    0.0000 H   0  0  0  0  0  0  0  0  0  0  0  0
    3.2000    2.7712    0.0000 H   0  0  0  0  0  0  0  0  0  0  0  0
    1.6001    2.7712    0.0000 H   0  0  0  0  0  0  0  0  0  0  0  0
    0.7999   -1.3856    0.0000 C   0  0  0  0  0  0  0  0  0  0  0  0
    0.5911   -2.9720    0.0000 H   0  0  0  0  0  0  0  0  0  0  0  0
   -0.4693   -2.3596    0.0000 H   0  0  0  0  0  0  0  0  0  0  0  0
    2.4000   -1.3856    0.0000 C   0  0  0  0  0  0  0  0  0  0  0  0
    3.2000   -2.7712    0.0000 H   0  0  0  0  0  0  0  0  0  0  0  0
    4.0000   -1.3856    0.0000 H   0  0  0  0  0  0  0  0  0  0  0  0
    1.6001   -2.7712    0.0000 H   0  0  0  0  0  0  0  0  0  0  0  0
   -2.4000    1.3856    0.0000 C   0  0  0  0  0  0  0  0  0  0  0  0
   -1.6000    2.7713    0.0000 H   0  0  0  0  0  0  0  0  0  0  0  0
   -4.0001    1.3856    0.0000 C   0  0  0  0  0  0  0  0  0  0  0  0
   -4.8000    2.7712    0.0000 H   0  0  0  0  0  0  0  0  0  0  0  0
   -4.8000    0.0000    0.0000 C   0  0  0  0  0  0  0  0  0  0  0  0
   -6.4000    0.0000    0.0000 Br  0  0  0  0  0  0  0  0  0  0  0  0
   -4.0001   -1.3856    0.0000 C   0  0  0  0  0  0  0  0  0  0  0  0
   -4.8000   -2.7712    0.0000 H   0  0  0  0  0  0  0  0  0  0  0  0
   -2.4000   -1.3856    0.0000 C   0  0  0  0  0  0  0  0  0  0  0  0
   -1.6000   -2.7712    0.0000 H   0  0  0  0  0  0  0  0  0  0  0  0
  1  2  1  0  0  0  0
  2  3  1  0  0  0  0
  3  4  1  0  0  0  0
  3  5  1  0  0  0  0
  3  6  1  0  0  0  0
  6  7  1  0  0  0  0
  6  8  1  0  0  0  0
  6  9  1  0  0  0  0
  2 10  1  0  0  0  0
 10 11  1  0  0  0  0
 10 12  1  0  0  0  0
 10 13  1  0  0  0  0
 13 14  1  0  0  0  0
 13 15  1  0  0  0  0
 13 16  1  0  0  0  0
  1 17  1  0  0  0  0
 17 18  1  0  0  0  0
 17 19  2  0  0  0  0
 19 20  1  0  0  0  0
 19 21  1  0  0  0  0
 21 22  1  0  0  0  0
 21 23  2  0  0  0  0
 23 24  1  0  0  0  0
 23 25  1  0  0  0  0
 25  1  2  0  0  0  0
 25 26  1  0  0  0  0
M  END
> <ChemID>
104145

> <source_casrn>
2052-06-4

> <CAS>
2052-06-4

> <SMILES>
CCN(CC)c1ccc(Br)cc1

> <NAME>
Benzenamine, 4-bromo-N,N-diethyl-

> <preferred_name>
N,N-Diethyl-p-bromoaniline

> <iupac>
4-Bromo-N,N-diethylaniline

> <MPID>
23065

> <dsstox_substance_id>
DTXSID3062152

> <Canonical_QSARr>
CCN(CC)c1ccc(Br)cc1

> <InChI_Code_QSARr>
InChI=1S/C10H14BrN/c1-3-12(4-2)10-7-5-9(11)6-8-10/h5-8H,3-4H2,1-2H3

> <InChI Key_QSARr>
NGYMZFJVHHKJQR-UHFFFAOYSA-N

> <Salt_Solvent>
?

> <BP>
270.0

$$$$
104149
  -INDIGO-08031720192D

 25 25  0  0  0  0  0  0  0  0999 V2000
   -0.0001    0.0000    0.0000 C   0  0  0  0  0  0  0  0  0  0  0  0
   -0.0001   -1.6000    0.0000 H   0  0  0  0  0  0  0  0  0  0  0  0
   -1.6000    0.0000    0.0000 C   0  0  0  0  0  0  0  0  0  0  0  0
   -2.4000    1.3856    0.0000 C   0  0  0  0  0  0  0  0  0  0  0  0
   -1.6000    2.7713    0.0000 H   0  0  0  0  0  0  0  0  0  0  0  0
   -3.9999    1.3856    0.0000 C   0  0  0  0  0  0  0  0  0  0  0  0
   -4.8000    2.7713    0.0000 H   0  0  0  0  0  0  0  0  0  0  0  0
   -4.8000    0.0000    0.0000 C   0  0  0  0  0  0  0  0  0  0  0  0
   -6.4001    0.0000    0.0000 C   0  0  0  0  0  0  0  0  0  0  0  0
   -7.1999    1.3856    0.0000 H   0  0  0  0  0  0  0  0  0  0  0  0
   -7.1999   -1.3857    0.0000 C   0  0  0  0  0  0  0  0  0  0  0  0
   -8.8000   -1.3857    0.0000 H   0  0  0  0  0  0  0  0  0  0  0  0
   -6.4001   -2.7713    0.0000 H   0  0  0  0  0  0  0  0  0  0  0  0
   -3.9999   -1.3857    0.0000 C   0  0  0  0  0  0  0  0  0  0  0  0
   -4.8000   -2.7713    0.0000 H   0  0  0  0  0  0  0  0  0  0  0  0
   -2.4000   -1.3857    0.0000 C   0  0  0  0  0  0  0  0  0  0  0  0
   -1.6000   -2.7713    0.0000 H   0  0  0  0  0  0  0  0  0  0  0  0
    1.5757   -0.2778    0.0000 C   0  0  0  0  0  0  0  0  0  0  0  0
    3.1514   -0.5557    0.0000 H   0  0  0  0  0  0  0  0  0  0  0  0
    2.1228   -1.7813    0.0000 H   0  0  0  0  0  0  0  0  0  0  0  0
    2.6041    0.9478    0.0000 H   0  0  0  0  0  0  0  0  0  0  0  0
   -0.0001    1.6000    0.0000 C   0  0  0  0  0  0  0  0  0  0  0  0
   -0.0001    3.2000    0.0000 H   0  0  0  0  0  0  0  0  0  0  0  0
    1.3857    2.4000    0.0000 H   0  0  0  0  0  0  0  0  0  0  0  0
    1.3857    0.8000    0.0000 H   0  0  0  0  0  0  0  0  0  0  0  0
  1  2  1  0  0  0  0
  1  3  1  0  0  0  0
  3  4  1  0  0  0  0
  4  5  1  0  0  0  0
  4  6  2  0  0  0  0
  6  7  1  0  0  0  0
  6  8  1  0  0  0  0
  8  9  1  0  0  0  0
  9 10  1  0  0  0  0
  9 11  2  0  0  0  0
 11 12  1  0  0  0  0
 11 13  1  0  0  0  0
  8 14  2  0  0  0  0
 14 15  1  0  0  0  0
 14 16  1  0  0  0  0
 16  3  2  0  0  0  0
 16 17  1  0  0  0  0
  1 18  1  0  0  0  0
 18 19  1  0  0  0  0
 18 20  1  0  0  0  0
 18 21  1  0  0  0  0
  1 22  1  0  0  0  0
 22 23  1  0  0  0  0
 22 24  1  0  0  0  0
 22 25  1  0  0  0  0
M  END
> <ChemID>
104149

> <source_casrn>
2055-40-5

> <CAS>
2055-40-5

> <SMILES>
CC(C)c1ccc(C=C)cc1

> <NAME>
1-Isopropyl-4-vinylbenzene

> <preferred_name>
p-Isopropylstyrene

> <iupac>
1-ethenyl-4-propan-2-ylbenzene

> <MPID>
23069

> <dsstox_substance_id>
DTXSID40174552

> <Canonical_QSARr>
CC(C)c1ccc(C=C)cc1

> <InChI_Code_QSARr>
InChI=1S/C11H14/c1-4-10-5-7-11(8-6-10)9(2)3/h4-9H,1H2,2-3H3

> <InChI Key_QSARr>
QQHQTCGEZWTSEJ-UHFFFAOYSA-N

> <Salt_Solvent>
?

> <BP>
204.1

$$$$
104153
  -INDIGO-08031720192D

 18 19  0  0  0  0  0  0  0  0999 V2000
    0.0001   -0.0000    0.0000 C   0  0  0  0  0  0  0  0  0  0  0  0
    1.3856    0.8000    0.0000 C   0  0  0  0  0  0  0  0  0  0  0  0
    1.3856    2.4000    0.0000 H   0  0  0  0  0  0  0  0  0  0  0  0
    2.7713   -0.0000    0.0000 C   0  0  0  0  0  0  0  0  0  0  0  0
    4.1569    0.8000    0.0000 H   0  0  0  0  0  0  0  0  0  0  0  0
    2.7713   -1.6000    0.0000 C   0  0  0  0  0  0  0  0  0  0  0  0
    4.1569   -2.4000    0.0000 Cl  0  0  0  0  0  0  0  0  0  0  0  0
    1.3856   -2.4000    0.0000 C   0  0  0  0  0  0  0  0  0  0  0  0
    1.3856   -4.0000    0.0000 H   0  0  0  0  0  0  0  0  0  0  0  0
    0.0001   -1.6000    0.0000 C   0  0  0  0  0  0  0  0  0  0  0  0
   -1.3856   -2.4000    0.0000 C   0  0  0  0  0  0  0  0  0  0  0  0
   -1.3856   -4.0000    0.0000 H   0  0  0  0  0  0  0  0  0  0  0  0
   -2.7712   -1.6000    0.0000 C   0  0  0  0  0  0  0  0  0  0  0  0
   -4.1569   -2.4000    0.0000 H   0  0  0  0  0  0  0  0  0  0  0  0
   -2.7712   -0.0000    0.0000 C   0  0  0  0  0  0  0  0  0  0  0  0
   -4.1569    0.8000    0.0000 Cl  0  0  0  0  0  0  0  0  0  0  0  0
   -1.3856    0.8000    0.0000 C   0  0  0  0  0  0  0  0  0  0  0  0
   -1.3856    2.4000    0.0000 H   0  0  0  0  0  0  0  0  0  0  0  0
  1  2  1  0  0  0  0
  2  3  1  0  0  0  0
  2  4  2  0  0  0  0
  4  5  1  0  0  0  0
  4  6  1  0  0  0  0
  6  7  1  0  0  0  0
  6  8  2  0  0  0  0
  8  9  1  0  0  0  0
  8 10  1  0  0  0  0
 10  1  1  0  0  0  0
 10 11  2  0  0  0  0
 11 12  1  0  0  0  0
 11 13  1  0  0  0  0
 13 14  1  0  0  0  0
 13 15  2  0  0  0  0
 15 16  1  0  0  0  0
 15 17  1  0  0  0  0
 17  1  2  0  0  0  0
 17 18  1  0  0  0  0
M  END
> <ChemID>
104153

> <source_casrn>
2065-70-5

> <CAS>
2065-70-5

> <SMILES>
Clc1cc2ccc(Cl)cc2cc1

> <NAME>
2,6-DICHLORONAPHTHALENE

> <preferred_name>


> <iupac>


> <MPID>
23073

> <dsstox_substance_id>
DTXSID50870932

> <Canonical_QSARr>
Clc1cc2ccc(Cl)cc2cc1

> <InChI_Code_QSARr>
InChI=1S/C10H6Cl2/c11-9-3-1-7-5-10(12)4-2-8(7)6-9/h1-6H

> <InChI Key_QSARr>
YCFUHBHONRJFHI-UHFFFAOYSA-N

> <Salt_Solvent>
?

> <BP>
285.0

$$$$
104157
  -INDIGO-08031720192D

 31 30  0  0  0  0  0  0  0  0999 V2000
   -2.7712   -0.0000    0.0000 C   0  0  0  0  0  0  0  0  0  0  0  0
   -2.7712   -1.6000    0.0000 O   0  0  0  0  0  0  0  0  0  0  0  0
   -4.1568    0.8000    0.0000 O   0  0  0  0  0  0  0  0  0  0  0  0
   -5.5426   -0.0000    0.0000 C   0  0  0  0  0  0  0  0  0  0  0  0
   -5.5426   -1.6000    0.0000 O   0  0  0  0  0  0  0  0  0  0  0  0
   -6.9282    0.8000    0.0000 C   0  0  0  0  0  0  0  0  0  0  0  0
   -7.5404    2.2782    0.0000 H   0  0  0  0  0  0  0  0  0  0  0  0
   -6.3160    2.2782    0.0000 H   0  0  0  0  0  0  0  0  0  0  0  0
   -8.3138   -0.0000    0.0000 C   0  0  0  0  0  0  0  0  0  0  0  0
   -7.7015   -1.4782    0.0000 H   0  0  0  0  0  0  0  0  0  0  0  0
   -8.9260   -1.4782    0.0000 H   0  0  0  0  0  0  0  0  0  0  0  0
   -9.6994    0.8000    0.0000 C   0  0  0  0  0  0  0  0  0  0  0  0
  -10.3118    2.2782    0.0000 H   0  0  0  0  0  0  0  0  0  0  0  0
   -9.0871    2.2782    0.0000 H   0  0  0  0  0  0  0  0  0  0  0  0
  -11.0852   -0.0000    0.0000 C   0  0  0  0  0  0  0  0  0  0  0  0
  -12.4708   -0.8000    0.0000 H   0  0  0  0  0  0  0  0  0  0  0  0
  -12.4708    0.8000    0.0000 H   0  0  0  0  0  0  0  0  0  0  0  0
  -11.0852   -1.6000    0.0000 H   0  0  0  0  0  0  0  0  0  0  0  0
   -1.3856    0.8000    0.0000 C   0  0  0  0  0  0  0  0  0  0  0  0
   -1.9979    2.2782    0.0000 H   0  0  0  0  0  0  0  0  0  0  0  0
   -0.7734    2.2782    0.0000 H   0  0  0  0  0  0  0  0  0  0  0  0
   -0.0001   -0.0000    0.0000 C   0  0  0  0  0  0  0  0  0  0  0  0
    0.6122   -1.4782    0.0000 H   0  0  0  0  0  0  0  0  0  0  0  0
   -0.6123   -1.4782    0.0000 H   0  0  0  0  0  0  0  0  0  0  0  0
    1.3858    0.8000    0.0000 C   0  0  0  0  0  0  0  0  0  0  0  0
    0.7733    2.2782    0.0000 H   0  0  0  0  0  0  0  0  0  0  0  0
    1.9980    2.2782    0.0000 H   0  0  0  0  0  0  0  0  0  0  0  0
    2.7713   -0.0000    0.0000 C   0  0  0  0  0  0  0  0  0  0  0  0
    4.1569   -0.8000    0.0000 H   0  0  0  0  0  0  0  0  0  0  0  0
    4.1569    0.8000    0.0000 H   0  0  0  0  0  0  0  0  0  0  0  0
    2.7713   -1.6000    0.0000 H   0  0  0  0  0  0  0  0  0  0  0  0
  1  2  2  0  0  0  0
  1  3  1  0  0  0  0
  3  4  1  0  0  0  0
  4  5  2  0  0  0  0
  4  6  1  0  0  0  0
  6  7  1  0  0  0  0
  6  8  1  0  0  0  0
  6  9  1  0  0  0  0
  9 10  1  0  0  0  0
  9 11  1  0  0  0  0
  9 12  1  0  0  0  0
 12 13  1  0  0  0  0
 12 14  1  0  0  0  0
 12 15  1  0  0  0  0
 15 16  1  0  0  0  0
 15 17  1  0  0  0  0
 15 18  1  0  0  0  0
  1 19  1  0  0  0  0
 19 20  1  0  0  0  0
 19 21  1  0  0  0  0
 19 22  1  0  0  0  0
 22 23  1  0  0  0  0
 22 24  1  0  0  0  0
 22 25  1  0  0  0  0
 25 26  1  0  0  0  0
 25 27  1  0  0  0  0
 25 28  1  0  0  0  0
 28 29  1  0  0  0  0
 28 30  1  0  0  0  0
 28 31  1  0  0  0  0
M  END
> <ChemID>
104157

> <source_casrn>
2082-59-9

> <CAS>
NOCAS_870934

> <SMILES>
CCCCC(=O)OC(=O)CCCC

> <NAME>
Pentanoic acid, anhydride

> <preferred_name>


> <iupac>


> <MPID>
23077

> <dsstox_substance_id>
DTXSID70870934

> <Canonical_QSARr>
CCCCC(=O)OC(=O)CCCC

> <InChI_Code_QSARr>
InChI=1S/C10H18O3/c1-3-5-7-9(11)13-10(12)8-6-4-2/h3-8H2,1-2H3

> <InChI Key_QSARr>
DUCKXCGALKOSJF-UHFFFAOYSA-N

> <Salt_Solvent>
?

> <BP>
227.0

$$$$
104163
  -INDIGO-08031720192D

 14 13  0  0  0  0  0  0  0  0999 V2000
    2.7713    0.0000    0.0000 C   0  0  0  0  0  0  0  0  0  0  0  0
    4.1569    0.8000    0.0000 H   0  0  0  0  0  0  0  0  0  0  0  0
    2.7713   -1.6000    0.0000 H   0  0  0  0  0  0  0  0  0  0  0  0
    1.3856    0.8000    0.0000 C   0  0  0  0  0  0  0  0  0  0  0  0
    1.3856    2.4000    0.0000 H   0  0  0  0  0  0  0  0  0  0  0  0
    0.0001    0.0000    0.0000 C   0  0  0  0  0  0  0  0  0  0  0  0
   -0.6123   -1.4782    0.0000 H   0  0  0  0  0  0  0  0  0  0  0  0
    0.6123   -1.4782    0.0000 H   0  0  0  0  0  0  0  0  0  0  0  0
   -1.3856    0.8000    0.0000 C   0  0  0  0  0  0  0  0  0  0  0  0
   -0.7734    2.2782    0.0000 H   0  0  0  0  0  0  0  0  0  0  0  0
   -1.9979    2.2782    0.0000 H   0  0  0  0  0  0  0  0  0  0  0  0
   -2.7713    0.0000    0.0000 C   0  0  0  0  0  0  0  0  0  0  0  0
   -4.1569    0.8000    0.0000 H   0  0  0  0  0  0  0  0  0  0  0  0
   -2.7713   -1.6000    0.0000 O   0  0  0  0  0  0  0  0  0  0  0  0
  1  2  1  0  0  0  0
  1  3  1  0  0  0  0
  1  4  2  0  0  0  0
  4  5  1  0  0  0  0
  4  6  1  0  0  0  0
  6  7  1  0  0  0  0
  6  8  1  0  0  0  0
  6  9  1  0  0  0  0
  9 10  1  0  0  0  0
  9 11  1  0  0  0  0
  9 12  1  0  0  0  0
 12 13  1  0  0  0  0
 12 14  2  0  0  0  0
M  END
> <ChemID>
104163

> <source_casrn>
2100-17-6

> <CAS>
2100-17-6

> <SMILES>
C=CCCC=O

> <NAME>
4-Pentenal

> <preferred_name>
4-Pentenal

> <iupac>
pent-4-enal

> <MPID>
23081

> <dsstox_substance_id>
DTXSID1062178

> <Canonical_QSARr>
C=CCCC=O

> <InChI_Code_QSARr>
InChI=1S/C5H8O/c1-2-3-4-5-6/h2,5H,1,3-4H2

> <InChI Key_QSARr>
QUMSUJWRUHPEEJ-UHFFFAOYSA-N

> <Salt_Solvent>
?

> <BP>
99.0

$$$$
104167
  -INDIGO-08031720192D

 25 25  0  0  0  0  0  0  0  0999 V2000
    2.4000    1.3857    0.0000 C   0  0  0  0  0  0  0  0  0  0  0  0
    3.2000    2.7712    0.0000 H   0  0  0  0  0  0  0  0  0  0  0  0
    0.8001    1.3857    0.0000 C   0  0  0  0  0  0  0  0  0  0  0  0
    1.0779    2.9613    0.0000 H   0  0  0  0  0  0  0  0  0  0  0  0
   -0.7035    1.9329    0.0000 H   0  0  0  0  0  0  0  0  0  0  0  0
   -0.0000    0.0000    0.0000 C   0  0  0  0  0  0  0  0  0  0  0  0
   -1.2256   -1.0284    0.0000 H   0  0  0  0  0  0  0  0  0  0  0  0
   -1.3856    0.8000    0.0000 C   0  0  0  0  0  0  0  0  0  0  0  0
   -1.6635    2.3757    0.0000 C   0  0  0  0  0  0  0  0  0  0  0  0
   -3.1670    2.9230    0.0000 H   0  0  0  0  0  0  0  0  0  0  0  0
   -0.4379    3.4042    0.0000 H   0  0  0  0  0  0  0  0  0  0  0  0
   -2.7713    0.0000    0.0000 C   0  0  0  0  0  0  0  0  0  0  0  0
   -4.1569   -0.8000    0.0000 H   0  0  0  0  0  0  0  0  0  0  0  0
   -4.1569    0.8000    0.0000 H   0  0  0  0  0  0  0  0  0  0  0  0
   -2.7713   -1.6000    0.0000 H   0  0  0  0  0  0  0  0  0  0  0  0
    0.8001   -1.3857    0.0000 C   0  0  0  0  0  0  0  0  0  0  0  0
   -0.7035   -1.9329    0.0000 H   0  0  0  0  0  0  0  0  0  0  0  0
    1.0779   -2.9613    0.0000 H   0  0  0  0  0  0  0  0  0  0  0  0
    2.4000   -1.3857    0.0000 C   0  0  0  0  0  0  0  0  0  0  0  0
    2.1221   -2.9613    0.0000 H   0  0  0  0  0  0  0  0  0  0  0  0
    3.9035   -1.9329    0.0000 H   0  0  0  0  0  0  0  0  0  0  0  0
    3.2000    0.0000    0.0000 C   0  0  0  0  0  0  0  0  0  0  0  0
    4.8001    0.0000    0.0000 C   0  0  0  0  0  0  0  0  0  0  0  0
    5.6000    1.3857    0.0000 H   0  0  0  0  0  0  0  0  0  0  0  0
    5.6000   -1.3857    0.0000 O   0  0  0  0  0  0  0  0  0  0  0  0
  1  2  1  0  0  0  0
  1  3  1  0  0  0  0
  3  4  1  0  0  0  0
  3  5  1  0  0  0  0
  3  6  1  0  0  0  0
  6  7  1  0  0  0  0
  6  8  1  0  0  0  0
  8  9  2  0  0  0  0
  9 10  1  0  0  0  0
  9 11  1  0  0  0  0
  8 12  1  0  0  0  0
 12 13  1  0  0  0  0
 12 14  1  0  0  0  0
 12 15  1  0  0  0  0
  6 16  1  0  0  0  0
 16 17  1  0  0  0  0
 16 18  1  0  0  0  0
 16 19  1  0  0  0  0
 19 20  1  0  0  0  0
 19 21  1  0  0  0  0
 19 22  1  0  0  0  0
 22  1  2  0  0  0  0
 22 23  1  0  0  0  0
 23 24  1  0  0  0  0
 23 25  2  0  0  0  0
M  END
> <ChemID>
104167

> <source_casrn>
2111-75-3

> <CAS>
2111-75-3

> <SMILES>
CC(=C)C1CC=C(CC1)C=O

> <NAME>
Perillaldehyde

> <preferred_name>
4-Isopropenylcyclohex-1-enecarbaldehyde

> <iupac>
4-(prop-1-en-2-yl)cyclohex-1-ene-1-carbaldehyde

> <MPID>
23085

> <dsstox_substance_id>
DTXSID6051855

> <Canonical_QSARr>
CC(=C)C1CC=C(CC1)C=O

> <InChI_Code_QSARr>
InChI=1S/C10H14O/c1-8(2)10-5-3-9(7-11)4-6-10/h3,7,10H,1,4-6H2,2H3

> <InChI Key_QSARr>
RUMOYJJNUMEFDD-UHFFFAOYSA-N

> <Salt_Solvent>
?

> <BP>
240.0

$$$$
104171
  -INDIGO-08031720192D

 25 25  0  0  0  0  0  0  0  0999 V2000
   -0.0000    0.0000    0.0000 C   0  0  0  0  0  0  0  0  0  0  0  0
    0.5473    1.5035    0.0000 H   0  0  0  0  0  0  0  0  0  0  0  0
   -0.0000   -1.6000    0.0000 C   0  0  0  0  0  0  0  0  0  0  0  0
    1.5035   -1.0528    0.0000 H   0  0  0  0  0  0  0  0  0  0  0  0
    0.5473   -3.1035    0.0000 H   0  0  0  0  0  0  0  0  0  0  0  0
   -1.3856   -2.4000    0.0000 C   0  0  0  0  0  0  0  0  0  0  0  0
   -0.3571   -3.6257    0.0000 H   0  0  0  0  0  0  0  0  0  0  0  0
   -2.4141   -3.6257    0.0000 H   0  0  0  0  0  0  0  0  0  0  0  0
   -2.7714   -1.6000    0.0000 C   0  0  0  0  0  0  0  0  0  0  0  0
   -3.3185   -3.1035    0.0000 H   0  0  0  0  0  0  0  0  0  0  0  0
   -4.3470   -1.3222    0.0000 H   0  0  0  0  0  0  0  0  0  0  0  0
   -2.7714    0.0000    0.0000 C   0  0  0  0  0  0  0  0  0  0  0  0
   -4.3470   -0.2778    0.0000 H   0  0  0  0  0  0  0  0  0  0  0  0
   -3.3185    1.5035    0.0000 H   0  0  0  0  0  0  0  0  0  0  0  0
   -1.3856    0.8000    0.0000 C   0  0  0  0  0  0  0  0  0  0  0  0
   -2.4141    2.0257    0.0000 H   0  0  0  0  0  0  0  0  0  0  0  0
   -0.3571    2.0257    0.0000 H   0  0  0  0  0  0  0  0  0  0  0  0
    1.6000    0.0000    0.0000 C   0  0  0  0  0  0  0  0  0  0  0  0
    1.8089    1.5863    0.0000 H   0  0  0  0  0  0  0  0  0  0  0  0
    2.8694    0.9740    0.0000 H   0  0  0  0  0  0  0  0  0  0  0  0
    2.6285   -1.2257    0.0000 C   0  0  0  0  0  0  0  0  0  0  0  0
    2.0812   -2.7292    0.0000 H   0  0  0  0  0  0  0  0  0  0  0  0
    4.2041   -0.9478    0.0000 C   0  0  0  0  0  0  0  0  0  0  0  0
    5.2326   -2.1735    0.0000 H   0  0  0  0  0  0  0  0  0  0  0  0
    4.7514    0.5556    0.0000 H   0  0  0  0  0  0  0  0  0  0  0  0
  1  2  1  0  0  0  0
  1  3  1  0  0  0  0
  3  4  1  0  0  0  0
  3  5  1  0  0  0  0
  3  6  1  0  0  0  0
  6  7  1  0  0  0  0
  6  8  1  0  0  0  0
  6  9  1  0  0  0  0
  9 10  1  0  0  0  0
  9 11  1  0  0  0  0
  9 12  1  0  0  0  0
 12 13  1  0  0  0  0
 12 14  1  0  0  0  0
 12 15  1  0  0  0  0
 15  1  1  0  0  0  0
 15 16  1  0  0  0  0
 15 17  1  0  0  0  0
  1 18  1  0  0  0  0
 18 19  1  0  0  0  0
 18 20  1  0  0  0  0
 18 21  1  0  0  0  0
 21 22  1  0  0  0  0
 21 23  2  0  0  0  0
 23 24  1  0  0  0  0
 23 25  1  0  0  0  0
M  END
> <ChemID>
104171

> <source_casrn>
2114-42-3

> <CAS>
2114-42-3

> <SMILES>
C=CCC1CCCCC1

> <NAME>
CYCLOHEXANE, 2-PROPENYL-

> <preferred_name>
Allylcyclohexane

> <iupac>
prop-2-enylcyclohexane

> <MPID>
23089

> <dsstox_substance_id>
DTXSID40175382

> <Canonical_QSARr>
C=CCC1CCCCC1

> <InChI_Code_QSARr>
InChI=1S/C9H16/c1-2-6-9-7-4-3-5-8-9/h2,9H,1,3-8H2

> <InChI Key_QSARr>
KVOZXXSUSRZIKD-UHFFFAOYSA-N

> <Salt_Solvent>
?

> <BP>
132.0

$$$$
104176
  -INDIGO-08031720192D

 57 57  0  0  0  0  0  0  0  0999 V2000
  -11.0850   -0.0000    0.0000 C   0  0  0  0  0  0  0  0  0  0  0  0
  -11.0850   -1.6000    0.0000 C   0  0  0  0  0  0  0  0  0  0  0  0
   -9.6994   -2.4000    0.0000 H   0  0  0  0  0  0  0  0  0  0  0  0
  -12.4709   -2.4000    0.0000 C   0  0  0  0  0  0  0  0  0  0  0  0
  -12.4709   -4.0000    0.0000 H   0  0  0  0  0  0  0  0  0  0  0  0
  -13.8565   -1.6000    0.0000 C   0  0  0  0  0  0  0  0  0  0  0  0
  -15.2420   -2.4000    0.0000 H   0  0  0  0  0  0  0  0  0  0  0  0
  -13.8565   -0.0000    0.0000 C   0  0  0  0  0  0  0  0  0  0  0  0
  -15.2420    0.8000    0.0000 H   0  0  0  0  0  0  0  0  0  0  0  0
  -12.4709    0.8000    0.0000 C   0  0  0  0  0  0  0  0  0  0  0  0
  -12.4709    2.4000    0.0000 H   0  0  0  0  0  0  0  0  0  0  0  0
   -9.6994    0.8000    0.0000 C   0  0  0  0  0  0  0  0  0  0  0  0
   -9.0872    2.2782    0.0000 H   0  0  0  0  0  0  0  0  0  0  0  0
  -10.3117    2.2782    0.0000 H   0  0  0  0  0  0  0  0  0  0  0  0
   -8.3139   -0.0000    0.0000 C   0  0  0  0  0  0  0  0  0  0  0  0
   -8.9261   -1.4782    0.0000 H   0  0  0  0  0  0  0  0  0  0  0  0
   -7.7016   -1.4782    0.0000 H   0  0  0  0  0  0  0  0  0  0  0  0
   -6.9283    0.8000    0.0000 C   0  0  0  0  0  0  0  0  0  0  0  0
   -6.3161    2.2782    0.0000 H   0  0  0  0  0  0  0  0  0  0  0  0
   -7.5405    2.2782    0.0000 H   0  0  0  0  0  0  0  0  0  0  0  0
   -5.5428   -0.0000    0.0000 C   0  0  0  0  0  0  0  0  0  0  0  0
   -6.1550   -1.4782    0.0000 H   0  0  0  0  0  0  0  0  0  0  0  0
   -4.9301   -1.4782    0.0000 H   0  0  0  0  0  0  0  0  0  0  0  0
   -4.1568    0.8000    0.0000 C   0  0  0  0  0  0  0  0  0  0  0  0
   -3.5446    2.2782    0.0000 H   0  0  0  0  0  0  0  0  0  0  0  0
   -4.7690    2.2782    0.0000 H   0  0  0  0  0  0  0  0  0  0  0  0
   -2.7712   -0.0000    0.0000 C   0  0  0  0  0  0  0  0  0  0  0  0
   -3.3835   -1.4782    0.0000 H   0  0  0  0  0  0  0  0  0  0  0  0
   -2.1590   -1.4782    0.0000 H   0  0  0  0  0  0  0  0  0  0  0  0
   -1.3857    0.8000    0.0000 C   0  0  0  0  0  0  0  0  0  0  0  0
   -0.7734    2.2782    0.0000 H   0  0  0  0  0  0  0  0  0  0  0  0
   -1.9979    2.2782    0.0000 H   0  0  0  0  0  0  0  0  0  0  0  0
   -0.0001   -0.0000    0.0000 C   0  0  0  0  0  0  0  0  0  0  0  0
   -0.6124   -1.4782    0.0000 H   0  0  0  0  0  0  0  0  0  0  0  0
    0.6121   -1.4782    0.0000 H   0  0  0  0  0  0  0  0  0  0  0  0
    1.3858    0.8000    0.0000 C   0  0  0  0  0  0  0  0  0  0  0  0
    1.9981    2.2782    0.0000 H   0  0  0  0  0  0  0  0  0  0  0  0
    0.7732    2.2782    0.0000 H   0  0  0  0  0  0  0  0  0  0  0  0
    2.7714   -0.0000    0.0000 C   0  0  0  0  0  0  0  0  0  0  0  0
    2.1592   -1.4782    0.0000 H   0  0  0  0  0  0  0  0  0  0  0  0
    3.3836   -1.4782    0.0000 H   0  0  0  0  0  0  0  0  0  0  0  0
    4.1569    0.8000    0.0000 C   0  0  0  0  0  0  0  0  0  0  0  0
    4.7692    2.2782    0.0000 H   0  0  0  0  0  0  0  0  0  0  0  0
    3.5447    2.2782    0.0000 H   0  0  0  0  0  0  0  0  0  0  0  0
    5.5425   -0.0000    0.0000 C   0  0  0  0  0  0  0  0  0  0  0  0
    4.9303   -1.4782    0.0000 H   0  0  0  0  0  0  0  0  0  0  0  0
    6.1547   -1.4782    0.0000 H   0  0  0  0  0  0  0  0  0  0  0  0
    6.9281    0.8000    0.0000 C   0  0  0  0  0  0  0  0  0  0  0  0
    7.5407    2.2782    0.0000 H   0  0  0  0  0  0  0  0  0  0  0  0
    6.3158    2.2782    0.0000 H   0  0  0  0  0  0  0  0  0  0  0  0
    8.3140   -0.0000    0.0000 C   0  0  0  0  0  0  0  0  0  0  0  0
    7.7014   -1.4782    0.0000 H   0  0  0  0  0  0  0  0  0  0  0  0
    8.9262   -1.4782    0.0000 H   0  0  0  0  0  0  0  0  0  0  0  0
    9.6996    0.8000    0.0000 C   0  0  0  0  0  0  0  0  0  0  0  0
   11.0851    1.6000    0.0000 H   0  0  0  0  0  0  0  0  0  0  0  0
   11.0851   -0.0000    0.0000 H   0  0  0  0  0  0  0  0  0  0  0  0
    9.6996    2.4000    0.0000 H   0  0  0  0  0  0  0  0  0  0  0  0
  1  2  1  0  0  0  0
  2  3  1  0  0  0  0
  2  4  2  0  0  0  0
  4  5  1  0  0  0  0
  4  6  1  0  0  0  0
  6  7  1  0  0  0  0
  6  8  2  0  0  0  0
  8  9  1  0  0  0  0
  8 10  1  0  0  0  0
 10  1  2  0  0  0  0
 10 11  1  0  0  0  0
  1 12  1  0  0  0  0
 12 13  1  0  0  0  0
 12 14  1  0  0  0  0
 12 15  1  0  0  0  0
 15 16  1  0  0  0  0
 15 17  1  0  0  0  0
 15 18  1  0  0  0  0
 18 19  1  0  0  0  0
 18 20  1  0  0  0  0
 18 21  1  0  0  0  0
 21 22  1  0  0  0  0
 21 23  1  0  0  0  0
 21 24  1  0  0  0  0
 24 25  1  0  0  0  0
 24 26  1  0  0  0  0
 24 27  1  0  0  0  0
 27 28  1  0  0  0  0
 27 29  1  0  0  0  0
 27 30  1  0  0  0  0
 30 31  1  0  0  0  0
 30 32  1  0  0  0  0
 30 33  1  0  0  0  0
 33 34  1  0  0  0  0
 33 35  1  0  0  0  0
 33 36  1  0  0  0  0
 36 37  1  0  0  0  0
 36 38  1  0  0  0  0
 36 39  1  0  0  0  0
 39 40  1  0  0  0  0
 39 41  1  0  0  0  0
 39 42  1  0  0  0  0
 42 43  1  0  0  0  0
 42 44  1  0  0  0  0
 42 45  1  0  0  0  0
 45 46  1  0  0  0  0
 45 47  1  0  0  0  0
 45 48  1  0  0  0  0
 48 49  1  0  0  0  0
 48 50  1  0  0  0  0
 48 51  1  0  0  0  0
 51 52  1  0  0  0  0
 51 53  1  0  0  0  0
 51 54  1  0  0  0  0
 54 55  1  0  0  0  0
 54 56  1  0  0  0  0
 54 57  1  0  0  0  0
M  END
> <ChemID>
104176

> <source_casrn>
2131-18-2

> <CAS>
2131-18-2

> <SMILES>
CCCCCCCCCCCCCCCc1ccccc1

> <NAME>
1-PHENYLPENTADECANE

> <preferred_name>
Pentadecylbenzene

> <iupac>
pentadecylbenzene

> <MPID>
23093

> <dsstox_substance_id>
DTXSID5051860

> <Canonical_QSARr>
CCCCCCCCCCCCCCCc1ccccc1

> <InChI_Code_QSARr>
InChI=1S/C21H36/c1-2-3-4-5-6-7-8-9-10-11-12-13-15-18-21-19-16-14-17-20-21/h14,16-17,19-20H,2-13,15,18H2,1H3

> <InChI Key_QSARr>
JIRNEODMTPGRGV-UHFFFAOYSA-N

> <Salt_Solvent>
?

> <BP>
373.0

$$$$
104180
  -INDIGO-08031720192D

 15 15  0  0  0  0  0  0  0  0999 V2000
    2.4001    1.3856    0.0000 C   0  0  0  0  0  0  0  0  0  0  0  0
    3.2000    2.7713    0.0000 H   0  0  0  0  0  0  0  0  0  0  0  0
    0.7999    1.3856    0.0000 C   0  0  0  0  0  0  0  0  0  0  0  0
    0.0000    2.7713    0.0000 Cl  0  0  0  0  0  0  0  0  0  0  0  0
    0.0000    0.0000    0.0000 C   0  0  0  0  0  0  0  0  0  0  0  0
   -1.6000    0.0000    0.0000 C   0  0  0  0  0  0  0  0  0  0  0  0
   -3.2000    0.0000    0.0000 Cl  0  0  0  0  0  0  0  0  0  0  0  0
   -2.4001   -1.3856    0.0000 Cl  0  0  0  0  0  0  0  0  0  0  0  0
   -2.4001    1.3856    0.0000 Cl  0  0  0  0  0  0  0  0  0  0  0  0
    0.8001   -1.3856    0.0000 C   0  0  0  0  0  0  0  0  0  0  0  0
    0.0000   -2.7713    0.0000 H   0  0  0  0  0  0  0  0  0  0  0  0
    2.4001   -1.3856    0.0000 C   0  0  0  0  0  0  0  0  0  0  0  0
    3.2000   -2.7713    0.0000 H   0  0  0  0  0  0  0  0  0  0  0  0
    3.2000   -0.0000    0.0000 C   0  0  0  0  0  0  0  0  0  0  0  0
    4.8000    0.0000    0.0000 H   0  0  0  0  0  0  0  0  0  0  0  0
  1  2  1  0  0  0  0
  1  3  1  0  0  0  0
  3  4  1  0  0  0  0
  3  5  2  0  0  0  0
  5  6  1  0  0  0  0
  6  7  1  0  0  0  0
  6  8  1  0  0  0  0
  6  9  1  0  0  0  0
  5 10  1  0  0  0  0
 10 11  1  0  0  0  0
 10 12  2  0  0  0  0
 12 13  1  0  0  0  0
 12 14  1  0  0  0  0
 14  1  2  0  0  0  0
 14 15  1  0  0  0  0
M  END
> <ChemID>
104180

> <source_casrn>
2136-89-2

> <CAS>
NOCAS_871863

> <SMILES>
Clc1ccccc1C(Cl)(Cl)Cl

> <NAME>
2-CHLOROBENZOTRICHLORIDE

> <preferred_name>


> <iupac>


> <MPID>
23097

> <dsstox_substance_id>
DTXSID50871863

> <Canonical_QSARr>
Clc1ccccc1C(Cl)(Cl)Cl

> <InChI_Code_QSARr>
InChI=1S/C7H4Cl4/c8-6-4-2-1-3-5(6)7(9,10)11/h1-4H

> <InChI Key_QSARr>
MFHPYLFZSCSNST-UHFFFAOYSA-N

> <Salt_Solvent>
?

> <BP>
264.3

$$$$
104184
  -INDIGO-08031720192D

 23 23  0  0  0  0  0  0  0  0999 V2000
   -2.7713    0.0001    0.0000 O   0  0  0  0  0  0  0  0  0  0  0  0
   -1.3856    0.8000    0.0000 C   0  0  0  0  0  0  0  0  0  0  0  0
    0.0000    0.0001    0.0000 C   0  0  0  0  0  0  0  0  0  0  0  0
    0.0000   -1.5999    0.0000 C   0  0  0  0  0  0  0  0  0  0  0  0
   -1.3857   -2.4000    0.0000 C   0  0  0  0  0  0  0  0  0  0  0  0
   -2.7713   -3.1999    0.0000 H   0  0  0  0  0  0  0  0  0  0  0  0
   -1.3857   -4.0000    0.0000 H   0  0  0  0  0  0  0  0  0  0  0  0
   -2.7713   -1.6001    0.0000 H   0  0  0  0  0  0  0  0  0  0  0  0
    1.3857   -2.4000    0.0000 C   0  0  0  0  0  0  0  0  0  0  0  0
    1.3856   -4.0000    0.0000 H   0  0  0  0  0  0  0  0  0  0  0  0
    2.7713   -1.5999    0.0000 C   0  0  0  0  0  0  0  0  0  0  0  0
    4.1570   -2.4000    0.0000 H   0  0  0  0  0  0  0  0  0  0  0  0
    2.7713    0.0001    0.0000 C   0  0  0  0  0  0  0  0  0  0  0  0
    4.1570    0.8000    0.0000 C   0  0  0  0  0  0  0  0  0  0  0  0
    5.5426    1.6001    0.0000 H   0  0  0  0  0  0  0  0  0  0  0  0
    5.5426    0.0001    0.0000 H   0  0  0  0  0  0  0  0  0  0  0  0
    4.1570    2.4000    0.0000 H   0  0  0  0  0  0  0  0  0  0  0  0
    1.3857    0.8000    0.0000 C   0  0  0  0  0  0  0  0  0  0  0  0
    1.3856    2.4000    0.0000 H   0  0  0  0  0  0  0  0  0  0  0  0
   -1.3856    2.4000    0.0000 C   0  0  0  0  0  0  0  0  0  0  0  0
   -1.3856    4.0000    0.0000 H   0  0  0  0  0  0  0  0  0  0  0  0
   -2.7713    3.2001    0.0000 H   0  0  0  0  0  0  0  0  0  0  0  0
    0.0000    3.2001    0.0000 H   0  0  0  0  0  0  0  0  0  0  0  0
  1  2  2  0  0  0  0
  2  3  1  0  0  0  0
  3  4  1  0  0  0  0
  4  5  1  0  0  0  0
  5  6  1  0  0  0  0
  5  7  1  0  0  0  0
  5  8  1  0  0  0  0
  4  9  2  0  0  0  0
  9 10  1  0  0  0  0
  9 11  1  0  0  0  0
 11 12  1  0  0  0  0
 11 13  2  0  0  0  0
 13 14  1  0  0  0  0
 14 15  1  0  0  0  0
 14 16  1  0  0  0  0
 14 17  1  0  0  0  0
 13 18  1  0  0  0  0
 18  3  2  0  0  0  0
 18 19  1  0  0  0  0
  2 20  1  0  0  0  0
 20 21  1  0  0  0  0
 20 22  1  0  0  0  0
 20 23  1  0  0  0  0
M  END
> <ChemID>
104184

> <source_casrn>
2142-73-6

> <CAS>
2142-73-6

> <SMILES>
Cc1cc(C(C)=O)c(C)cc1

> <NAME>
Ethanone, 1-(2,5-dimethylphenyl)-

> <preferred_name>
Ethanone, 1-(2,5-dimethylphenyl)-

> <iupac>
1-(2,5-dimethylphenyl)ethanone

> <MPID>
23101

> <dsstox_substance_id>
DTXSID6062202

> <Canonical_QSARr>
Cc1cc(C(C)=O)c(C)cc1

> <InChI_Code_QSARr>
InChI=1S/C10H12O/c1-7-4-5-8(2)10(6-7)9(3)11/h4-6H,1-3H3

> <InChI Key_QSARr>
AWKBVLVKQQRRFQ-UHFFFAOYSA-N

> <Salt_Solvent>
?

> <BP>
232.5

$$$$
104189
  -INDIGO-08031720192D

 20 19  0  0  0  0  0  0  0  0999 V2000
    2.7713    0.0000    0.0000 C   0  0  0  0  0  0  0  0  0  0  0  0
    4.1569    0.8000    0.0000 H   0  0  0  0  0  0  0  0  0  0  0  0
    4.1569   -0.8000    0.0000 H   0  0  0  0  0  0  0  0  0  0  0  0
    1.3857   -0.8000    0.0000 C   0  0  0  0  0  0  0  0  0  0  0  0
    0.7734   -2.2782    0.0000 H   0  0  0  0  0  0  0  0  0  0  0  0
    0.0001    0.0000    0.0000 C   0  0  0  0  0  0  0  0  0  0  0  0
    0.6124    1.4782    0.0000 H   0  0  0  0  0  0  0  0  0  0  0  0
   -0.6122    1.4782    0.0000 H   0  0  0  0  0  0  0  0  0  0  0  0
   -1.3857   -0.8000    0.0000 C   0  0  0  0  0  0  0  0  0  0  0  0
   -1.9980   -2.2782    0.0000 H   0  0  0  0  0  0  0  0  0  0  0  0
   -0.7734   -2.2782    0.0000 H   0  0  0  0  0  0  0  0  0  0  0  0
   -2.7713    0.0000    0.0000 C   0  0  0  0  0  0  0  0  0  0  0  0
   -2.1590    1.4782    0.0000 H   0  0  0  0  0  0  0  0  0  0  0  0
   -3.3836    1.4782    0.0000 H   0  0  0  0  0  0  0  0  0  0  0  0
   -4.1569   -0.8000    0.0000 C   0  0  0  0  0  0  0  0  0  0  0  0
   -5.5426   -1.6000    0.0000 H   0  0  0  0  0  0  0  0  0  0  0  0
   -5.5426    0.0000    0.0000 H   0  0  0  0  0  0  0  0  0  0  0  0
   -4.1569   -2.4000    0.0000 H   0  0  0  0  0  0  0  0  0  0  0  0
    1.9980   -2.2782    0.0000 Cl  0  0  0  0  0  0  0  0  0  0  0  0
    2.7713    1.6000    0.0000 Cl  0  0  0  0  0  0  0  0  0  0  0  0
  1  2  1  0  0  0  0
  1  3  1  0  0  0  0
  1  4  1  0  0  0  0
  4  5  1  0  0  0  0
  4  6  1  0  0  0  0
  6  7  1  0  0  0  0
  6  8  1  0  0  0  0
  6  9  1  0  0  0  0
  9 10  1  0  0  0  0
  9 11  1  0  0  0  0
  9 12  1  0  0  0  0
 12 13  1  0  0  0  0
 12 14  1  0  0  0  0
 12 15  1  0  0  0  0
 15 16  1  0  0  0  0
 15 17  1  0  0  0  0
 15 18  1  0  0  0  0
  4 19  1  0  0  0  0
  1 20  1  0  0  0  0
M  END
> <ChemID>
104189

> <source_casrn>
2162-92-7

> <CAS>
NOCAS_870943

> <SMILES>
CCCCC(Cl)CCl

> <NAME>
1,2-DICHLOROHEXANE

> <preferred_name>


> <iupac>


> <MPID>
23105

> <dsstox_substance_id>
DTXSID60870943

> <Canonical_QSARr>
CCCCC(Cl)CCl

> <InChI_Code_QSARr>
InChI=1S/C6H12Cl2/c1-2-3-4-6(8)5-7/h6H,2-5H2,1H3

> <InChI Key_QSARr>
ZHFXSKJYCSWRJA-UHFFFAOYSA-N

> <Salt_Solvent>
?

> <BP>
173.0

$$$$
104193
  -INDIGO-08031720192D

 32 31  0  0  0  0  0  0  0  0999 V2000
   -1.3856    2.4000    0.0000 O   0  0  0  0  0  0  0  0  0  0  0  0
   -0.0000    1.6001    0.0000 C   0  0  0  0  0  0  0  0  0  0  0  0
    1.3857    2.4000    0.0000 O   0  0  0  0  0  0  0  0  0  0  0  0
   -0.0000   -0.0000    0.0000 C   0  0  0  0  0  0  0  0  0  0  0  0
   -0.0000   -1.6000    0.0000 H   0  0  0  0  0  0  0  0  0  0  0  0
    1.5756   -0.2779    0.0000 C   0  0  0  0  0  0  0  0  0  0  0  0
    2.0568    1.2481    0.0000 H   0  0  0  0  0  0  0  0  0  0  0  0
    2.9948    0.4610    0.0000 H   0  0  0  0  0  0  0  0  0  0  0  0
    2.1229   -1.7814    0.0000 C   0  0  0  0  0  0  0  0  0  0  0  0
    1.6417   -3.3073    0.0000 H   0  0  0  0  0  0  0  0  0  0  0  0
    0.7036   -2.5201    0.0000 H   0  0  0  0  0  0  0  0  0  0  0  0
    3.6987   -2.0592    0.0000 C   0  0  0  0  0  0  0  0  0  0  0  0
    5.2743   -2.3369    0.0000 H   0  0  0  0  0  0  0  0  0  0  0  0
    4.2459   -3.5627    0.0000 H   0  0  0  0  0  0  0  0  0  0  0  0
    4.7271   -0.8335    0.0000 H   0  0  0  0  0  0  0  0  0  0  0  0
   -1.6001   -0.0000    0.0000 C   0  0  0  0  0  0  0  0  0  0  0  0
   -2.4001   -1.3857    0.0000 O   0  0  0  0  0  0  0  0  0  0  0  0
   -3.9999   -1.3857    0.0000 C   0  0  0  0  0  0  0  0  0  0  0  0
   -5.2694   -0.4116    0.0000 H   0  0  0  0  0  0  0  0  0  0  0  0
   -4.2089    0.2007    0.0000 H   0  0  0  0  0  0  0  0  0  0  0  0
   -4.8000   -2.7712    0.0000 C   0  0  0  0  0  0  0  0  0  0  0  0
   -5.6000   -4.1569    0.0000 H   0  0  0  0  0  0  0  0  0  0  0  0
   -6.4000   -2.7712    0.0000 H   0  0  0  0  0  0  0  0  0  0  0  0
   -3.9999   -4.1569    0.0000 H   0  0  0  0  0  0  0  0  0  0  0  0
   -2.4001    1.3856    0.0000 O   0  0  0  0  0  0  0  0  0  0  0  0
   -1.3856    3.9999    0.0000 C   0  0  0  0  0  0  0  0  0  0  0  0
    0.2007    4.2089    0.0000 H   0  0  0  0  0  0  0  0  0  0  0  0
   -0.4117    5.2693    0.0000 H   0  0  0  0  0  0  0  0  0  0  0  0
   -2.7713    4.8001    0.0000 C   0  0  0  0  0  0  0  0  0  0  0  0
   -4.1569    5.6000    0.0000 H   0  0  0  0  0  0  0  0  0  0  0  0
   -2.7713    6.4000    0.0000 H   0  0  0  0  0  0  0  0  0  0  0  0
   -4.1569    3.9999    0.0000 H   0  0  0  0  0  0  0  0  0  0  0  0
  1  2  1  0  0  0  0
  2  3  2  0  0  0  0
  2  4  1  0  0  0  0
  4  5  1  0  0  0  0
  4  6  1  0  0  0  0
  6  7  1  0  0  0  0
  6  8  1  0  0  0  0
  6  9  1  0  0  0  0
  9 10  1  0  0  0  0
  9 11  1  0  0  0  0
  9 12  1  0  0  0  0
 12 13  1  0  0  0  0
 12 14  1  0  0  0  0
 12 15  1  0  0  0  0
  4 16  1  0  0  0  0
 16 17  1  0  0  0  0
 17 18  1  0  0  0  0
 18 19  1  0  0  0  0
 18 20  1  0  0  0  0
 18 21  1  0  0  0  0
 21 22  1  0  0  0  0
 21 23  1  0  0  0  0
 21 24  1  0  0  0  0
 16 25  2  0  0  0  0
  1 26  1  0  0  0  0
 26 27  1  0  0  0  0
 26 28  1  0  0  0  0
 26 29  1  0  0  0  0
 29 30  1  0  0  0  0
 29 31  1  0  0  0  0
 29 32  1  0  0  0  0
M  END
> <ChemID>
104193

> <source_casrn>
2163-48-6

> <CAS>
2163-48-6

> <SMILES>
CCCC(C(=O)OCC)C(=O)OCC

> <NAME>
PROPANEDIOIC ACID, PROPYL-, DIETHYL ESTER

> <preferred_name>
Diethyl propylmalonate

> <iupac>
diethyl 2-propylpropanedioate

> <MPID>
23109

> <dsstox_substance_id>
DTXSID60176018

> <Canonical_QSARr>
CCCC(C(=O)OCC)C(=O)OCC

> <InChI_Code_QSARr>
InChI=1S/C10H18O4/c1-4-7-8(9(11)13-5-2)10(12)14-6-3/h8H,4-7H2,1-3H3

> <InChI Key_QSARr>
GRRSDGHTSMJICM-UHFFFAOYSA-N

> <Salt_Solvent>
?

> <BP>
221.0

$$$$
104199
  -INDIGO-08031720192D

 18 17  0  0  0  0  0  0  0  0999 V2000
    1.3857    0.8000    0.0000 S   0  0  0  0  0  0  0  0  0  0  0  0
    2.7712    0.0000    0.0000 S   0  0  0  0  0  0  0  0  0  0  0  0
    4.1569    0.8000    0.0000 C   0  0  0  0  0  0  0  0  0  0  0  0
    4.7693    2.2782    0.0000 H   0  0  0  0  0  0  0  0  0  0  0  0
    3.5446    2.2782    0.0000 H   0  0  0  0  0  0  0  0  0  0  0  0
    5.5426    0.0000    0.0000 C   0  0  0  0  0  0  0  0  0  0  0  0
    5.5426   -1.6000    0.0000 H   0  0  0  0  0  0  0  0  0  0  0  0
    6.9281    0.8000    0.0000 C   0  0  0  0  0  0  0  0  0  0  0  0
    8.3138    0.0000    0.0000 H   0  0  0  0  0  0  0  0  0  0  0  0
    6.9281    2.4000    0.0000 H   0  0  0  0  0  0  0  0  0  0  0  0
    0.0000    0.0000    0.0000 C   0  0  0  0  0  0  0  0  0  0  0  0
   -0.6124   -1.4782    0.0000 H   0  0  0  0  0  0  0  0  0  0  0  0
    0.6124   -1.4782    0.0000 H   0  0  0  0  0  0  0  0  0  0  0  0
   -1.3857    0.8000    0.0000 C   0  0  0  0  0  0  0  0  0  0  0  0
   -1.3857    2.4000    0.0000 H   0  0  0  0  0  0  0  0  0  0  0  0
   -2.7712    0.0000    0.0000 C   0  0  0  0  0  0  0  0  0  0  0  0
   -4.1569    0.8000    0.0000 H   0  0  0  0  0  0  0  0  0  0  0  0
   -2.7712   -1.6000    0.0000 H   0  0  0  0  0  0  0  0  0  0  0  0
  1  2  1  0  0  0  0
  2  3  1  0  0  0  0
  3  4  1  0  0  0  0
  3  5  1  0  0  0  0
  3  6  1  0  0  0  0
  6  7  1  0  0  0  0
  6  8  2  0  0  0  0
  8  9  1  0  0  0  0
  8 10  1  0  0  0  0
  1 11  1  0  0  0  0
 11 12  1  0  0  0  0
 11 13  1  0  0  0  0
 11 14  1  0  0  0  0
 14 15  1  0  0  0  0
 14 16  2  0  0  0  0
 16 17  1  0  0  0  0
 16 18  1  0  0  0  0
M  END
> <ChemID>
104199

> <source_casrn>
2179-57-9

> <CAS>
2179-57-9

> <SMILES>
C=CCSSCC=C

> <NAME>
Diallyl disulfide

> <preferred_name>
Diallyl disulfide

> <iupac>
diprop-2-en-1-yl disulfide

> <MPID>
23113

> <dsstox_substance_id>
DTXSID9035206

> <Canonical_QSARr>
C=CCSSCC=C

> <InChI_Code_QSARr>
InChI=1S/C6H10S2/c1-3-5-7-8-6-4-2/h3-4H,1-2,5-6H2

> <InChI Key_QSARr>
PFRGXCVKLLPLIP-UHFFFAOYSA-N

> <Salt_Solvent>
?

> <BP>
187.5

$$$$
104203
  -INDIGO-08031720192D

 18 19  0  0  0  0  0  0  0  0999 V2000
    0.0001   -0.0000    0.0000 C   0  0  0  0  0  0  0  0  0  0  0  0
    1.3856    0.8000    0.0000 C   0  0  0  0  0  0  0  0  0  0  0  0
    1.3856    2.4000    0.0000 Cl  0  0  0  0  0  0  0  0  0  0  0  0
    2.7713   -0.0000    0.0000 C   0  0  0  0  0  0  0  0  0  0  0  0
    4.1569    0.8000    0.0000 H   0  0  0  0  0  0  0  0  0  0  0  0
    2.7713   -1.6000    0.0000 C   0  0  0  0  0  0  0  0  0  0  0  0
    4.1569   -2.4000    0.0000 Cl  0  0  0  0  0  0  0  0  0  0  0  0
    1.3856   -2.4000    0.0000 C   0  0  0  0  0  0  0  0  0  0  0  0
    1.3856   -4.0000    0.0000 H   0  0  0  0  0  0  0  0  0  0  0  0
    0.0001   -1.6000    0.0000 C   0  0  0  0  0  0  0  0  0  0  0  0
   -1.3856   -2.4000    0.0000 C   0  0  0  0  0  0  0  0  0  0  0  0
   -1.3856   -4.0000    0.0000 H   0  0  0  0  0  0  0  0  0  0  0  0
   -2.7712   -1.6000    0.0000 C   0  0  0  0  0  0  0  0  0  0  0  0
   -4.1569   -2.4000    0.0000 H   0  0  0  0  0  0  0  0  0  0  0  0
   -2.7712   -0.0000    0.0000 C   0  0  0  0  0  0  0  0  0  0  0  0
   -4.1569    0.8000    0.0000 H   0  0  0  0  0  0  0  0  0  0  0  0
   -1.3856    0.8000    0.0000 C   0  0  0  0  0  0  0  0  0  0  0  0
   -1.3856    2.4000    0.0000 H   0  0  0  0  0  0  0  0  0  0  0  0
  1  2  1  0  0  0  0
  2  3  1  0  0  0  0
  2  4  2  0  0  0  0
  4  5  1  0  0  0  0
  4  6  1  0  0  0  0
  6  7  1  0  0  0  0
  6  8  2  0  0  0  0
  8  9  1  0  0  0  0
  8 10  1  0  0  0  0
 10  1  1  0  0  0  0
 10 11  2  0  0  0  0
 11 12  1  0  0  0  0
 11 13  1  0  0  0  0
 13 14  1  0  0  0  0
 13 15  2  0  0  0  0
 15 16  1  0  0  0  0
 15 17  1  0  0  0  0
 17  1  2  0  0  0  0
 17 18  1  0  0  0  0
M  END
> <ChemID>
104203

> <source_casrn>
2198-75-6

> <CAS>
2198-75-6

> <SMILES>
Clc1cc2ccccc2c(Cl)c1

> <NAME>
Naphthalene, 1,3-dichloro-

> <preferred_name>
Naphthalene, 1,3-dichloro-

> <iupac>
1,3-DICHLORONAPHTHALENE

> <MPID>
23117

> <dsstox_substance_id>
DTXSID2062246

> <Canonical_QSARr>
Clc1cc2ccccc2c(Cl)c1

> <InChI_Code_QSARr>
InChI=1S/C10H6Cl2/c11-8-5-7-3-1-2-4-9(7)10(12)6-8/h1-6H

> <InChI Key_QSARr>
AMCBMCWLCDERHY-UHFFFAOYSA-N

> <Salt_Solvent>
?

> <BP>
291.0

$$$$
104212
  -INDIGO-08031720192D

 12 11  0  0  0  0  0  0  0  0999 V2000
    1.3856    0.8000    0.0000 C   0  0  0  0  0  0  0  0  0  0  0  0
    2.7713    0.0000    0.0000 C   0  0  0  0  0  0  0  0  0  0  0  0
    4.1569    0.8000    0.0000 H   0  0  0  0  0  0  0  0  0  0  0  0
    2.7713   -1.6000    0.0000 H   0  0  0  0  0  0  0  0  0  0  0  0
    0.0000    0.0000    0.0000 C   0  0  0  0  0  0  0  0  0  0  0  0
   -0.6123   -1.4782    0.0000 H   0  0  0  0  0  0  0  0  0  0  0  0
    0.6123   -1.4782    0.0000 H   0  0  0  0  0  0  0  0  0  0  0  0
   -1.3856    0.8000    0.0000 C   0  0  0  0  0  0  0  0  0  0  0  0
   -2.7713    1.6000    0.0000 H   0  0  0  0  0  0  0  0  0  0  0  0
   -2.7713    0.0000    0.0000 H   0  0  0  0  0  0  0  0  0  0  0  0
   -1.3856    2.4000    0.0000 H   0  0  0  0  0  0  0  0  0  0  0  0
    1.3856    2.4000    0.0000 Cl  0  0  0  0  0  0  0  0  0  0  0  0
  1  2  2  0  0  0  0
  2  3  1  0  0  0  0
  2  4  1  0  0  0  0
  1  5  1  0  0  0  0
  5  6  1  0  0  0  0
  5  7  1  0  0  0  0
  5  8  1  0  0  0  0
  8  9  1  0  0  0  0
  8 10  1  0  0  0  0
  8 11  1  0  0  0  0
  1 12  1  0  0  0  0
M  END
> <ChemID>
104212

> <source_casrn>
2211-70-3

> <CAS>
2211-70-3

> <SMILES>
CCC(=C)Cl

> <NAME>
1-Butene, 2-chloro-

> <preferred_name>
1-Butene, 2-chloro-

> <iupac>
2-Chlorobut-1-ene

> <MPID>
23123

> <dsstox_substance_id>
DTXSID1062255

> <Canonical_QSARr>
CCC(=C)Cl

> <InChI_Code_QSARr>
InChI=1S/C4H7Cl/c1-3-4(2)5/h2-3H2,1H3

> <InChI Key_QSARr>
HSEFPJMMKNHABB-UHFFFAOYSA-N

> <Salt_Solvent>
?

> <BP>
58.5

$$$$
104216
  -INDIGO-08031720192D

 29 28  0  0  0  0  0  0  0  0999 V2000
    5.0327   -1.3197    0.0000 C   0  0  0  0  0  0  0  0  0  0  0  0
    5.8326   -2.7053    0.0000 H   0  0  0  0  0  0  0  0  0  0  0  0
    4.2326   -2.7053    0.0000 H   0  0  0  0  0  0  0  0  0  0  0  0
    6.6327   -1.3197    0.0000 H   0  0  0  0  0  0  0  0  0  0  0  0
    4.2326    0.0660    0.0000 C   0  0  0  0  0  0  0  0  0  0  0  0
    3.4327    1.4517    0.0000 H   0  0  0  0  0  0  0  0  0  0  0  0
    2.7292   -0.4812    0.0000 C   0  0  0  0  0  0  0  0  0  0  0  0
    3.0756   -2.0433    0.0000 H   0  0  0  0  0  0  0  0  0  0  0  0
    1.8695   -1.8307    0.0000 H   0  0  0  0  0  0  0  0  0  0  0  0
    1.5035    0.5472    0.0000 C   0  0  0  0  0  0  0  0  0  0  0  0
    1.1573    2.1093    0.0000 H   0  0  0  0  0  0  0  0  0  0  0  0
    2.3632    1.8967    0.0000 H   0  0  0  0  0  0  0  0  0  0  0  0
    0.0000    0.0000    0.0000 C   0  0  0  0  0  0  0  0  0  0  0  0
    0.8000   -1.3857    0.0000 H   0  0  0  0  0  0  0  0  0  0  0  0
   -1.3856   -0.8000    0.0000 C   0  0  0  0  0  0  0  0  0  0  0  0
   -0.7733   -2.2782    0.0000 H   0  0  0  0  0  0  0  0  0  0  0  0
   -1.9980   -2.2782    0.0000 H   0  0  0  0  0  0  0  0  0  0  0  0
   -2.7713    0.0000    0.0000 C   0  0  0  0  0  0  0  0  0  0  0  0
   -4.1569   -0.8000    0.0000 H   0  0  0  0  0  0  0  0  0  0  0  0
   -4.1569    0.8000    0.0000 H   0  0  0  0  0  0  0  0  0  0  0  0
   -2.7713   -1.6000    0.0000 H   0  0  0  0  0  0  0  0  0  0  0  0
   -0.8001    1.3857    0.0000 C   0  0  0  0  0  0  0  0  0  0  0  0
   -1.6000    2.7713    0.0000 H   0  0  0  0  0  0  0  0  0  0  0  0
    0.0000    2.7713    0.0000 H   0  0  0  0  0  0  0  0  0  0  0  0
   -2.4001    1.3857    0.0000 H   0  0  0  0  0  0  0  0  0  0  0  0
    5.6184    0.8660    0.0000 C   0  0  0  0  0  0  0  0  0  0  0  0
    7.0040    1.6660    0.0000 H   0  0  0  0  0  0  0  0  0  0  0  0
    7.0040    0.0660    0.0000 H   0  0  0  0  0  0  0  0  0  0  0  0
    5.6184    2.4660    0.0000 H   0  0  0  0  0  0  0  0  0  0  0  0
  1  2  1  0  0  0  0
  1  3  1  0  0  0  0
  1  4  1  0  0  0  0
  1  5  1  0  0  0  0
  5  6  1  0  0  0  0
  5  7  1  0  0  0  0
  7  8  1  0  0  0  0
  7  9  1  0  0  0  0
  7 10  1  0  0  0  0
 10 11  1  0  0  0  0
 10 12  1  0  0  0  0
 10 13  1  0  0  0  0
 13 14  1  0  0  0  0
 13 15  1  0  0  0  0
 15 16  1  0  0  0  0
 15 17  1  0  0  0  0
 15 18  1  0  0  0  0
 18 19  1  0  0  0  0
 18 20  1  0  0  0  0
 18 21  1  0  0  0  0
 13 22  1  0  0  0  0
 22 23  1  0  0  0  0
 22 24  1  0  0  0  0
 22 25  1  0  0  0  0
  5 26  1  0  0  0  0
 26 27  1  0  0  0  0
 26 28  1  0  0  0  0
 26 29  1  0  0  0  0
M  END
> <ChemID>
104216

> <source_casrn>
2216-30-0

> <CAS>
NOCAS_862874

> <SMILES>
CC(C)CCC(C)CC

> <NAME>
HEPTANE, 2,5-DIMETHYL-

> <preferred_name>


> <iupac>


> <MPID>
23127

> <dsstox_substance_id>
DTXSID70862874

> <Canonical_QSARr>
CC(C)CCC(C)CC

> <InChI_Code_QSARr>
InChI=1S/C9H20/c1-5-9(4)7-6-8(2)3/h8-9H,5-7H2,1-4H3

> <InChI Key_QSARr>
HQZHQNKZOYIKQC-UHFFFAOYSA-N

> <Salt_Solvent>
?

> <BP>
136.0

$$$$
104221
  -INDIGO-08031720192D

 23 24  0  0  0  0  0  0  0  0999 V2000
    0.0000    0.0000    0.0000 C   0  0  0  0  0  0  0  0  0  0  0  0
    1.6000    0.0000    0.0000 C   0  0  0  0  0  0  0  0  0  0  0  0
    2.3999    1.3856    0.0000 N   0  0  0  0  0  0  0  0  0  0  0  0
    1.6000    2.7713    0.0000 H   0  0  0  0  0  0  0  0  0  0  0  0
    4.0001    1.3856    0.0000 C   0  0  0  0  0  0  0  0  0  0  0  0
    5.6000    1.3856    0.0000 H   0  0  0  0  0  0  0  0  0  0  0  0
    4.8000    2.7713    0.0000 H   0  0  0  0  0  0  0  0  0  0  0  0
    4.8000    0.0000    0.0000 H   0  0  0  0  0  0  0  0  0  0  0  0
    2.3999   -1.3856    0.0000 C   0  0  0  0  0  0  0  0  0  0  0  0
    4.0001   -1.3856    0.0000 H   0  0  0  0  0  0  0  0  0  0  0  0
    1.6000   -2.7713    0.0000 C   0  0  0  0  0  0  0  0  0  0  0  0
    2.3999   -4.1569    0.0000 H   0  0  0  0  0  0  0  0  0  0  0  0
    0.0000   -2.7713    0.0000 C   0  0  0  0  0  0  0  0  0  0  0  0
   -0.8000   -4.1569    0.0000 H   0  0  0  0  0  0  0  0  0  0  0  0
   -0.8000   -1.3856    0.0000 C   0  0  0  0  0  0  0  0  0  0  0  0
   -2.4001   -1.3856    0.0000 C   0  0  0  0  0  0  0  0  0  0  0  0
   -3.2000   -2.7713    0.0000 H   0  0  0  0  0  0  0  0  0  0  0  0
   -3.2000    0.0000    0.0000 C   0  0  0  0  0  0  0  0  0  0  0  0
   -4.8000    0.0000    0.0000 H   0  0  0  0  0  0  0  0  0  0  0  0
   -2.4001    1.3856    0.0000 C   0  0  0  0  0  0  0  0  0  0  0  0
   -3.2000    2.7713    0.0000 H   0  0  0  0  0  0  0  0  0  0  0  0
   -0.8000    1.3856    0.0000 C   0  0  0  0  0  0  0  0  0  0  0  0
    0.0000    2.7713    0.0000 H   0  0  0  0  0  0  0  0  0  0  0  0
  1  2  1  0  0  0  0
  2  3  1  0  0  0  0
  3  4  1  0  0  0  0
  3  5  1  0  0  0  0
  5  6  1  0  0  0  0
  5  7  1  0  0  0  0
  5  8  1  0  0  0  0
  2  9  2  0  0  0  0
  9 10  1  0  0  0  0
  9 11  1  0  0  0  0
 11 12  1  0  0  0  0
 11 13  2  0  0  0  0
 13 14  1  0  0  0  0
 13 15  1  0  0  0  0
 15  1  1  0  0  0  0
 15 16  2  0  0  0  0
 16 17  1  0  0  0  0
 16 18  1  0  0  0  0
 18 19  1  0  0  0  0
 18 20  2  0  0  0  0
 20 21  1  0  0  0  0
 20 22  1  0  0  0  0
 22  1  2  0  0  0  0
 22 23  1  0  0  0  0
M  END
> <ChemID>
104221

> <source_casrn>
2216-68-4

> <CAS>
2216-68-4

> <SMILES>
CNc1cccc2ccccc21

> <NAME>
1-NAPHTHALENAMINE, N-METHYL-

> <preferred_name>
1-Naphthalenamine, N-methyl-

> <iupac>
N-methylnaphthalen-1-amine

> <MPID>
23132

> <dsstox_substance_id>
DTXSID0062262

> <Canonical_QSARr>
CNc1cccc2ccccc21

> <InChI_Code_QSARr>
InChI=1S/C11H11N/c1-12-11-8-4-6-9-5-2-3-7-10(9)11/h2-8,12H,1H3

> <InChI Key_QSARr>
AKEYUWUEAXIBTF-UHFFFAOYSA-N

> <Salt_Solvent>
?

> <BP>
294.5

$$$$
104225
  -INDIGO-08031720192D

 26 26  0  0  0  0  0  0  0  0999 V2000
    4.1569    2.4000    0.0000 O   0  0  0  0  0  0  0  0  0  0  0  0
    4.1569    0.8000    0.0000 C   0  0  0  0  0  0  0  0  0  0  0  0
    5.5427   -0.0000    0.0000 O   0  0  0  0  0  0  0  0  0  0  0  0
    6.9282    0.8000    0.0000 C   0  0  0  0  0  0  0  0  0  0  0  0
    6.3159    2.2782    0.0000 H   0  0  0  0  0  0  0  0  0  0  0  0
    7.5405    2.2782    0.0000 H   0  0  0  0  0  0  0  0  0  0  0  0
    8.3139   -0.0000    0.0000 C   0  0  0  0  0  0  0  0  0  0  0  0
    9.6995   -0.8000    0.0000 H   0  0  0  0  0  0  0  0  0  0  0  0
    9.6995    0.8000    0.0000 H   0  0  0  0  0  0  0  0  0  0  0  0
    8.3139   -1.6000    0.0000 H   0  0  0  0  0  0  0  0  0  0  0  0
    2.7714   -0.0000    0.0000 C   0  0  0  0  0  0  0  0  0  0  0  0
    3.3835   -1.4782    0.0000 H   0  0  0  0  0  0  0  0  0  0  0  0
    2.1591   -1.4782    0.0000 H   0  0  0  0  0  0  0  0  0  0  0  0
    1.3856    0.8000    0.0000 N   0  0  0  0  0  0  0  0  0  0  0  0
    1.3856    2.4000    0.0000 H   0  0  0  0  0  0  0  0  0  0  0  0
    0.0001   -0.0000    0.0000 C   0  0  0  0  0  0  0  0  0  0  0  0
   -1.3856    0.8000    0.0000 C   0  0  0  0  0  0  0  0  0  0  0  0
   -1.3856    2.4000    0.0000 H   0  0  0  0  0  0  0  0  0  0  0  0
   -2.7714   -0.0000    0.0000 C   0  0  0  0  0  0  0  0  0  0  0  0
   -4.1569    0.8000    0.0000 H   0  0  0  0  0  0  0  0  0  0  0  0
   -2.7712   -1.6000    0.0000 C   0  0  0  0  0  0  0  0  0  0  0  0
   -4.1569   -2.4000    0.0000 H   0  0  0  0  0  0  0  0  0  0  0  0
   -1.3856   -2.4000    0.0000 C   0  0  0  0  0  0  0  0  0  0  0  0
   -1.3856   -4.0000    0.0000 H   0  0  0  0  0  0  0  0  0  0  0  0
    0.0001   -1.6000    0.0000 C   0  0  0  0  0  0  0  0  0  0  0  0
    1.3856   -2.4000    0.0000 H   0  0  0  0  0  0  0  0  0  0  0  0
  1  2  2  0  0  0  0
  2  3  1  0  0  0  0
  3  4  1  0  0  0  0
  4  5  1  0  0  0  0
  4  6  1  0  0  0  0
  4  7  1  0  0  0  0
  7  8  1  0  0  0  0
  7  9  1  0  0  0  0
  7 10  1  0  0  0  0
  2 11  1  0  0  0  0
 11 12  1  0  0  0  0
 11 13  1  0  0  0  0
 11 14  1  0  0  0  0
 14 15  1  0  0  0  0
 14 16  1  0  0  0  0
 16 17  1  0  0  0  0
 17 18  1  0  0  0  0
 17 19  2  0  0  0  0
 19 20  1  0  0  0  0
 19 21  1  0  0  0  0
 21 22  1  0  0  0  0
 21 23  2  0  0  0  0
 23 24  1  0  0  0  0
 23 25  1  0  0  0  0
 25 16  2  0  0  0  0
 25 26  1  0  0  0  0
M  END
> <ChemID>
104225

> <source_casrn>
2216-92-4

> <CAS>
2216-92-4

> <SMILES>
CCOC(=O)CNc1ccccc1

> <NAME>
Glycine, N-phenyl-, ethyl ester

> <preferred_name>
Glycine, N-phenyl-, ethyl ester

> <iupac>
ethyl 2-(phenylamino)acetate

> <MPID>
23136

> <dsstox_substance_id>
DTXSID0062264

> <Canonical_QSARr>
CCOC(=O)CNc1ccccc1

> <InChI_Code_QSARr>
InChI=1S/C10H13NO2/c1-2-13-10(12)8-11-9-6-4-3-5-7-9/h3-7,11H,2,8H2,1H3

> <InChI Key_QSARr>
MLSGRWDEDYJNER-UHFFFAOYSA-N

> <Salt_Solvent>
?

> <BP>
273.5

$$$$
104229
  -INDIGO-08031720192D

 34 33  0  0  0  0  0  0  0  0999 V2000
    7.9029    1.1114    0.0000 O   0  0  0  0  0  0  0  0  0  0  0  0
    9.4784    1.3892    0.0000 C   0  0  0  0  0  0  0  0  0  0  0  0
    9.7564   -0.1865    0.0000 H   0  0  0  0  0  0  0  0  0  0  0  0
   11.0543    1.6670    0.0000 C   0  0  0  0  0  0  0  0  0  0  0  0
   12.6298    1.9448    0.0000 H   0  0  0  0  0  0  0  0  0  0  0  0
   11.6014    3.1705    0.0000 H   0  0  0  0  0  0  0  0  0  0  0  0
   12.0825    0.4414    0.0000 H   0  0  0  0  0  0  0  0  0  0  0  0
    9.2007    2.9649    0.0000 C   0  0  0  0  0  0  0  0  0  0  0  0
    8.9228    4.5406    0.0000 H   0  0  0  0  0  0  0  0  0  0  0  0
    7.6970    3.5121    0.0000 H   0  0  0  0  0  0  0  0  0  0  0  0
   10.4262    3.9933    0.0000 H   0  0  0  0  0  0  0  0  0  0  0  0
    7.3555   -0.3921    0.0000 C   0  0  0  0  0  0  0  0  0  0  0  0
    8.3840   -1.6178    0.0000 O   0  0  0  0  0  0  0  0  0  0  0  0
    5.7799   -0.6700    0.0000 C   0  0  0  0  0  0  0  0  0  0  0  0
    5.5020    0.9057    0.0000 H   0  0  0  0  0  0  0  0  0  0  0  0
    6.0577   -2.2456    0.0000 O   0  0  0  0  0  0  0  0  0  0  0  0
    7.5611   -2.7929    0.0000 H   0  0  0  0  0  0  0  0  0  0  0  0
    4.2041   -0.9478    0.0000 C   0  0  0  0  0  0  0  0  0  0  0  0
    3.9264    0.6278    0.0000 H   0  0  0  0  0  0  0  0  0  0  0  0
    4.4821   -2.5235    0.0000 O   0  0  0  0  0  0  0  0  0  0  0  0
    3.2564   -3.5520    0.0000 H   0  0  0  0  0  0  0  0  0  0  0  0
    2.6285   -1.2257    0.0000 C   0  0  0  0  0  0  0  0  0  0  0  0
    1.6001    0.0000    0.0000 O   0  0  0  0  0  0  0  0  0  0  0  0
    0.0001    0.0000    0.0000 C   0  0  0  0  0  0  0  0  0  0  0  0
   -1.5999    0.0000    0.0000 H   0  0  0  0  0  0  0  0  0  0  0  0
    0.0001    1.6000    0.0000 C   0  0  0  0  0  0  0  0  0  0  0  0
    0.0001    3.2000    0.0000 H   0  0  0  0  0  0  0  0  0  0  0  0
   -1.3857    2.4000    0.0000 H   0  0  0  0  0  0  0  0  0  0  0  0
    1.3857    2.4000    0.0000 H   0  0  0  0  0  0  0  0  0  0  0  0
   -0.2779   -1.5757    0.0000 C   0  0  0  0  0  0  0  0  0  0  0  0
   -0.5556   -3.1514    0.0000 H   0  0  0  0  0  0  0  0  0  0  0  0
   -1.7813   -2.1229    0.0000 H   0  0  0  0  0  0  0  0  0  0  0  0
    0.9478   -2.6041    0.0000 H   0  0  0  0  0  0  0  0  0  0  0  0
    2.0812   -2.7292    0.0000 O   0  0  0  0  0  0  0  0  0  0  0  0
  1  2  1  0  0  0  0
  2  3  1  0  0  0  0
  2  4  1  0  0  0  0
  4  5  1  0  0  0  0
  4  6  1  0  0  0  0
  4  7  1  0  0  0  0
  2  8  1  0  0  0  0
  8  9  1  0  0  0  0
  8 10  1  0  0  0  0
  8 11  1  0  0  0  0
  1 12  1  0  0  0  0
 12 13  2  0  0  0  0
 12 14  1  0  0  0  0
 14 15  1  0  0  0  0
 14 16  1  0  0  0  0
 16 17  1  0  0  0  0
 14 18  1  0  0  0  0
 18 19  1  0  0  0  0
 18 20  1  0  0  0  0
 20 21  1  0  0  0  0
 18 22  1  0  0  0  0
 22 23  1  0  0  0  0
 23 24  1  0  0  0  0
 24 25  1  0  0  0  0
 24 26  1  0  0  0  0
 26 27  1  0  0  0  0
 26 28  1  0  0  0  0
 26 29  1  0  0  0  0
 24 30  1  0  0  0  0
 30 31  1  0  0  0  0
 30 32  1  0  0  0  0
 30 33  1  0  0  0  0
 22 34  2  0  0  0  0
M  END
> <ChemID>
104229

> <source_casrn>
2217-15-4

> <CAS>
58167-01-4

> <SMILES>
CC(C)OC(=O)[C@H](O)[C@@H](O)C(=O)OC(C)C

> <NAME>
Tartaric acid, diisopropyl ester

> <preferred_name>
Butanedioic acid, 2,3-dihydroxy-, bis(1-methylethyl) ester, (R,R)-(+/-)-

> <iupac>
dipropan-2-yl (2R,3R)-2,3-dihydroxybutanedioate

> <MPID>
23140

> <dsstox_substance_id>
DTXSID70206895

> <Canonical_QSARr>
CC(C)OC(=O)C(O)C(O)C(=O)OC(C)C

> <InChI_Code_QSARr>
InChI=1S/C10H18O6/c1-5(2)15-9(13)7(11)8(12)10(14)16-6(3)4/h5-8,11-12H,1-4H3

> <InChI Key_QSARr>
XEBCWEDRGPSHQH-UHFFFAOYSA-N

> <Salt_Solvent>
?

> <BP>
275.0

$$$$
104233
  -INDIGO-08031720192D

  9  8  0  0  0  0  0  0  0  0999 V2000
    0.0000    0.0000    0.0000 C   0  0  0  0  0  0  0  0  0  0  0  0
    1.3857   -0.8000    0.0000 C   0  0  0  0  0  0  0  0  0  0  0  0
    1.3857   -2.4000    0.0000 H   0  0  0  0  0  0  0  0  0  0  0  0
    2.7713    0.0000    0.0000 C   0  0  0  0  0  0  0  0  0  0  0  0
    4.1569   -0.8000    0.0000 H   0  0  0  0  0  0  0  0  0  0  0  0
    2.7713    1.6000    0.0000 H   0  0  0  0  0  0  0  0  0  0  0  0
   -1.3856    0.8000    0.0000 Cl  0  0  0  0  0  0  0  0  0  0  0  0
    0.0000    1.6000    0.0000 Cl  0  0  0  0  0  0  0  0  0  0  0  0
   -1.3856   -0.8000    0.0000 Cl  0  0  0  0  0  0  0  0  0  0  0  0
  1  2  1  0  0  0  0
  2  3  1  0  0  0  0
  2  4  2  0  0  0  0
  4  5  1  0  0  0  0
  4  6  1  0  0  0  0
  1  7  1  0  0  0  0
  1  8  1  0  0  0  0
  1  9  1  0  0  0  0
M  END
> <ChemID>
104233

> <source_casrn>
2233-00-3

> <CAS>
2233-00-3

> <SMILES>
C=CC(Cl)(Cl)Cl

> <NAME>
1-Propene, 3,3,3-trichloro-

> <preferred_name>
1-Propene, 3,3,3-trichloro-

> <iupac>
3,3,3-trichloroprop-1-ene

> <MPID>
23144

> <dsstox_substance_id>
DTXSID3062281

> <Canonical_QSARr>
C=CC(Cl)(Cl)Cl

> <InChI_Code_QSARr>
InChI=1S/C3H3Cl3/c1-2-3(4,5)6/h2H,1H2

> <InChI Key_QSARr>
VKEIPALYOJMDAC-UHFFFAOYSA-N

> <Salt_Solvent>
?

> <BP>
114.5

$$$$
104238
  -INDIGO-08031720192D

 27 26  0  0  0  0  0  0  0  0999 V2000
    5.5427   -0.0000    0.0000 C   0  0  0  0  0  0  0  0  0  0  0  0
    6.9282   -0.8000    0.0000 H   0  0  0  0  0  0  0  0  0  0  0  0
    6.9282    0.8000    0.0000 H   0  0  0  0  0  0  0  0  0  0  0  0
    5.5427   -1.6000    0.0000 H   0  0  0  0  0  0  0  0  0  0  0  0
    4.1569    0.8000    0.0000 C   0  0  0  0  0  0  0  0  0  0  0  0
    3.5446    2.2782    0.0000 H   0  0  0  0  0  0  0  0  0  0  0  0
    4.7692    2.2782    0.0000 H   0  0  0  0  0  0  0  0  0  0  0  0
    2.7714   -0.0000    0.0000 C   0  0  0  0  0  0  0  0  0  0  0  0
    3.3835   -1.4782    0.0000 H   0  0  0  0  0  0  0  0  0  0  0  0
    2.1591   -1.4782    0.0000 H   0  0  0  0  0  0  0  0  0  0  0  0
    1.3856    0.8000    0.0000 C   0  0  0  0  0  0  0  0  0  0  0  0
    0.7733    2.2782    0.0000 H   0  0  0  0  0  0  0  0  0  0  0  0
    1.9980    2.2782    0.0000 H   0  0  0  0  0  0  0  0  0  0  0  0
    0.0001   -0.0000    0.0000 C   0  0  0  0  0  0  0  0  0  0  0  0
    0.6122   -1.4782    0.0000 H   0  0  0  0  0  0  0  0  0  0  0  0
   -0.6122   -1.4782    0.0000 H   0  0  0  0  0  0  0  0  0  0  0  0
   -1.3856    0.8000    0.0000 C   0  0  0  0  0  0  0  0  0  0  0  0
   -1.9980    2.2782    0.0000 H   0  0  0  0  0  0  0  0  0  0  0  0
   -0.7733    2.2782    0.0000 H   0  0  0  0  0  0  0  0  0  0  0  0
   -2.7712   -0.0000    0.0000 C   0  0  0  0  0  0  0  0  0  0  0  0
   -2.1591   -1.4782    0.0000 H   0  0  0  0  0  0  0  0  0  0  0  0
   -3.3835   -1.4782    0.0000 H   0  0  0  0  0  0  0  0  0  0  0  0
   -4.1569    0.8000    0.0000 C   0  0  0  0  0  0  0  0  0  0  0  0
   -4.7692    2.2782    0.0000 H   0  0  0  0  0  0  0  0  0  0  0  0
   -3.5446    2.2782    0.0000 H   0  0  0  0  0  0  0  0  0  0  0  0
   -5.5425   -0.0000    0.0000 C   0  0  0  0  0  0  0  0  0  0  0  0
   -6.9282   -0.8000    0.0000 N   0  0  0  0  0  0  0  0  0  0  0  0
  1  2  1  0  0  0  0
  1  3  1  0  0  0  0
  1  4  1  0  0  0  0
  1  5  1  0  0  0  0
  5  6  1  0  0  0  0
  5  7  1  0  0  0  0
  5  8  1  0  0  0  0
  8  9  1  0  0  0  0
  8 10  1  0  0  0  0
  8 11  1  0  0  0  0
 11 12  1  0  0  0  0
 11 13  1  0  0  0  0
 11 14  1  0  0  0  0
 14 15  1  0  0  0  0
 14 16  1  0  0  0  0
 14 17  1  0  0  0  0
 17 18  1  0  0  0  0
 17 19  1  0  0  0  0
 17 20  1  0  0  0  0
 20 21  1  0  0  0  0
 20 22  1  0  0  0  0
 20 23  1  0  0  0  0
 23 24  1  0  0  0  0
 23 25  1  0  0  0  0
 23 26  1  0  0  0  0
 26 27  3  0  0  0  0
M  END
> <ChemID>
104238

> <source_casrn>
2243-27-8

> <CAS>
2243-27-8

> <SMILES>
CCCCCCCCC#N

> <NAME>
NONANONITRILE

> <preferred_name>
Octyl cyanide

> <iupac>
nonanenitrile

> <MPID>
23149

> <dsstox_substance_id>
DTXSID6022183

> <Canonical_QSARr>
CCCCCCCCC#N

> <InChI_Code_QSARr>
InChI=1S/C9H17N/c1-2-3-4-5-6-7-8-9-10/h2-8H2,1H3

> <InChI Key_QSARr>
PLZZPPHAMDJOSR-UHFFFAOYSA-N

> <Salt_Solvent>
?

> <BP>
224.4

$$$$
104242
  -INDIGO-08031720192D

 23 23  0  0  0  0  0  0  0  0999 V2000
   -2.7712   -0.0000    0.0000 O   0  0  0  0  0  0  0  0  0  0  0  0
   -1.3857   -0.8000    0.0000 C   0  0  0  0  0  0  0  0  0  0  0  0
   -1.9979   -2.2782    0.0000 H   0  0  0  0  0  0  0  0  0  0  0  0
   -0.7733   -2.2782    0.0000 H   0  0  0  0  0  0  0  0  0  0  0  0
    0.0000   -0.0000    0.0000 C   0  0  0  0  0  0  0  0  0  0  0  0
    0.6124    1.4782    0.0000 H   0  0  0  0  0  0  0  0  0  0  0  0
   -0.6124    1.4782    0.0000 H   0  0  0  0  0  0  0  0  0  0  0  0
    1.3857   -0.8000    0.0000 C   0  0  0  0  0  0  0  0  0  0  0  0
    0.7733   -2.2782    0.0000 H   0  0  0  0  0  0  0  0  0  0  0  0
    1.9979   -2.2782    0.0000 H   0  0  0  0  0  0  0  0  0  0  0  0
    2.7712   -0.0000    0.0000 C   0  0  0  0  0  0  0  0  0  0  0  0
    4.1569    0.8000    0.0000 N   0  0  0  0  0  0  0  0  0  0  0  0
   -4.1569   -0.8000    0.0000 C   0  0  0  0  0  0  0  0  0  0  0  0
   -4.1569   -2.4000    0.0000 C   0  0  0  0  0  0  0  0  0  0  0  0
   -2.7712   -3.2000    0.0000 H   0  0  0  0  0  0  0  0  0  0  0  0
   -5.5426   -3.2000    0.0000 C   0  0  0  0  0  0  0  0  0  0  0  0
   -5.5426   -4.8000    0.0000 H   0  0  0  0  0  0  0  0  0  0  0  0
   -6.9281   -2.4000    0.0000 C   0  0  0  0  0  0  0  0  0  0  0  0
   -8.3138   -3.2000    0.0000 H   0  0  0  0  0  0  0  0  0  0  0  0
   -6.9281   -0.8000    0.0000 C   0  0  0  0  0  0  0  0  0  0  0  0
   -8.3138   -0.0000    0.0000 H   0  0  0  0  0  0  0  0  0  0  0  0
   -5.5426   -0.0000    0.0000 C   0  0  0  0  0  0  0  0  0  0  0  0
   -5.5426    1.6000    0.0000 H   0  0  0  0  0  0  0  0  0  0  0  0
  1  2  1  0  0  0  0
  2  3  1  0  0  0  0
  2  4  1  0  0  0  0
  2  5  1  0  0  0  0
  5  6  1  0  0  0  0
  5  7  1  0  0  0  0
  5  8  1  0  0  0  0
  8  9  1  0  0  0  0
  8 10  1  0  0  0  0
  8 11  1  0  0  0  0
 11 12  3  0  0  0  0
  1 13  1  0  0  0  0
 13 14  1  0  0  0  0
 14 15  1  0  0  0  0
 14 16  2  0  0  0  0
 16 17  1  0  0  0  0
 16 18  1  0  0  0  0
 18 19  1  0  0  0  0
 18 20  2  0  0  0  0
 20 21  1  0  0  0  0
 20 22  1  0  0  0  0
 22 13  2  0  0  0  0
 22 23  1  0  0  0  0
M  END
> <ChemID>
104242

> <source_casrn>
2243-43-8

> <CAS>
2243-43-8

> <SMILES>
N#CCCCOc1ccccc1

> <NAME>
4-Phenoxy-butyronitrile

> <preferred_name>
4-Phenoxybutyronitrile

> <iupac>
4-(phenoxy)butanenitrile

> <MPID>
23153

> <dsstox_substance_id>
DTXSID80176954

> <Canonical_QSARr>
N#CCCCOc1ccccc1

> <InChI_Code_QSARr>
InChI=1S/C10H11NO/c11-8-4-5-9-12-10-6-2-1-3-7-10/h1-3,6-7H,4-5,9H2

> <InChI Key_QSARr>
ZOLWCAUQCGRDGA-UHFFFAOYSA-N

> <Salt_Solvent>
?

> <BP>
288.0

$$$$
104246
  -INDIGO-08031720192D

 31 30  0  0  0  0  0  0  0  0999 V2000
    6.9283    0.8000    0.0000 C   0  0  0  0  0  0  0  0  0  0  0  0
    8.3139    1.6000    0.0000 C   0  0  0  0  0  0  0  0  0  0  0  0
    9.6995    2.4000    0.0000 H   0  0  0  0  0  0  0  0  0  0  0  0
    5.5425    0.0000    0.0000 C   0  0  0  0  0  0  0  0  0  0  0  0
    6.1547   -1.4782    0.0000 H   0  0  0  0  0  0  0  0  0  0  0  0
    4.9303   -1.4782    0.0000 H   0  0  0  0  0  0  0  0  0  0  0  0
    4.1569    0.8000    0.0000 C   0  0  0  0  0  0  0  0  0  0  0  0
    3.5447    2.2782    0.0000 H   0  0  0  0  0  0  0  0  0  0  0  0
    4.7692    2.2782    0.0000 H   0  0  0  0  0  0  0  0  0  0  0  0
    2.7713    0.0000    0.0000 C   0  0  0  0  0  0  0  0  0  0  0  0
    3.3836   -1.4782    0.0000 H   0  0  0  0  0  0  0  0  0  0  0  0
    2.1591   -1.4782    0.0000 H   0  0  0  0  0  0  0  0  0  0  0  0
    1.3858    0.8000    0.0000 C   0  0  0  0  0  0  0  0  0  0  0  0
    0.7733    2.2782    0.0000 H   0  0  0  0  0  0  0  0  0  0  0  0
    1.9980    2.2782    0.0000 H   0  0  0  0  0  0  0  0  0  0  0  0
   -0.0001    0.0000    0.0000 C   0  0  0  0  0  0  0  0  0  0  0  0
    0.6122   -1.4782    0.0000 H   0  0  0  0  0  0  0  0  0  0  0  0
   -0.6123   -1.4782    0.0000 H   0  0  0  0  0  0  0  0  0  0  0  0
   -1.3856    0.8000    0.0000 C   0  0  0  0  0  0  0  0  0  0  0  0
   -1.9979    2.2782    0.0000 H   0  0  0  0  0  0  0  0  0  0  0  0
   -0.7734    2.2782    0.0000 H   0  0  0  0  0  0  0  0  0  0  0  0
   -2.7712    0.0000    0.0000 C   0  0  0  0  0  0  0  0  0  0  0  0
   -2.1590   -1.4782    0.0000 H   0  0  0  0  0  0  0  0  0  0  0  0
   -3.3834   -1.4782    0.0000 H   0  0  0  0  0  0  0  0  0  0  0  0
   -4.1568    0.8000    0.0000 C   0  0  0  0  0  0  0  0  0  0  0  0
   -4.7693    2.2782    0.0000 H   0  0  0  0  0  0  0  0  0  0  0  0
   -3.5446    2.2782    0.0000 H   0  0  0  0  0  0  0  0  0  0  0  0
   -5.5426    0.0000    0.0000 C   0  0  0  0  0  0  0  0  0  0  0  0
   -6.9282   -0.8000    0.0000 H   0  0  0  0  0  0  0  0  0  0  0  0
   -6.9282    0.8000    0.0000 H   0  0  0  0  0  0  0  0  0  0  0  0
   -5.5426   -1.6000    0.0000 H   0  0  0  0  0  0  0  0  0  0  0  0
  1  2  3  0  0  0  0
  2  3  1  0  0  0  0
  1  4  1  0  0  0  0
  4  5  1  0  0  0  0
  4  6  1  0  0  0  0
  4  7  1  0  0  0  0
  7  8  1  0  0  0  0
  7  9  1  0  0  0  0
  7 10  1  0  0  0  0
 10 11  1  0  0  0  0
 10 12  1  0  0  0  0
 10 13  1  0  0  0  0
 13 14  1  0  0  0  0
 13 15  1  0  0  0  0
 13 16  1  0  0  0  0
 16 17  1  0  0  0  0
 16 18  1  0  0  0  0
 16 19  1  0  0  0  0
 19 20  1  0  0  0  0
 19 21  1  0  0  0  0
 19 22  1  0  0  0  0
 22 23  1  0  0  0  0
 22 24  1  0  0  0  0
 22 25  1  0  0  0  0
 25 26  1  0  0  0  0
 25 27  1  0  0  0  0
 25 28  1  0  0  0  0
 28 29  1  0  0  0  0
 28 30  1  0  0  0  0
 28 31  1  0  0  0  0
M  END
> <ChemID>
104246

> <source_casrn>
2243-98-3

> <CAS>
2243-98-3

> <SMILES>
CCCCCCCCCC#C

> <NAME>
1-Undecyne

> <preferred_name>
1-Undecyne

> <iupac>
undec-1-yne

> <MPID>
23157

> <dsstox_substance_id>
DTXSID8062288

> <Canonical_QSARr>
CCCCCCCCCC#C

> <InChI_Code_QSARr>
InChI=1S/C11H20/c1-3-5-7-9-11-10-8-6-4-2/h1H,4-11H2,2H3

> <InChI Key_QSARr>
YVSFLVNWJIEJRV-UHFFFAOYSA-N

> <Salt_Solvent>
?

> <BP>
196.0

$$$$
104251
  -INDIGO-08031720192D

 17 17  0  0  0  0  0  0  0  0999 V2000
   -4.1569    2.4000    0.0000 O   0  0  0  0  0  0  0  0  0  0  0  0
   -4.1569    0.8000    0.0000 C   0  0  0  0  0  0  0  0  0  0  0  0
   -2.7713   -0.0000    0.0000 C   0  0  0  0  0  0  0  0  0  0  0  0
   -2.7713   -1.6000    0.0000 C   0  0  0  0  0  0  0  0  0  0  0  0
   -4.1570   -2.4000    0.0000 H   0  0  0  0  0  0  0  0  0  0  0  0
   -1.3857   -2.4000    0.0000 C   0  0  0  0  0  0  0  0  0  0  0  0
   -1.3857   -4.0000    0.0000 H   0  0  0  0  0  0  0  0  0  0  0  0
    0.0000   -1.6000    0.0000 C   0  0  0  0  0  0  0  0  0  0  0  0
    1.3856   -2.4000    0.0000 H   0  0  0  0  0  0  0  0  0  0  0  0
    0.0000   -0.0000    0.0000 C   0  0  0  0  0  0  0  0  0  0  0  0
    1.3856    0.8000    0.0000 C   0  0  0  0  0  0  0  0  0  0  0  0
    2.7713    1.6000    0.0000 F   0  0  0  0  0  0  0  0  0  0  0  0
    2.7713   -0.0000    0.0000 F   0  0  0  0  0  0  0  0  0  0  0  0
    1.3856    2.4000    0.0000 F   0  0  0  0  0  0  0  0  0  0  0  0
   -1.3857    0.8000    0.0000 C   0  0  0  0  0  0  0  0  0  0  0  0
   -1.3857    2.4000    0.0000 H   0  0  0  0  0  0  0  0  0  0  0  0
   -5.5426   -0.0000    0.0000 Cl  0  0  0  0  0  0  0  0  0  0  0  0
  1  2  2  0  0  0  0
  2  3  1  0  0  0  0
  3  4  1  0  0  0  0
  4  5  1  0  0  0  0
  4  6  2  0  0  0  0
  6  7  1  0  0  0  0
  6  8  1  0  0  0  0
  8  9  1  0  0  0  0
  8 10  2  0  0  0  0
 10 11  1  0  0  0  0
 11 12  1  0  0  0  0
 11 13  1  0  0  0  0
 11 14  1  0  0  0  0
 10 15  1  0  0  0  0
 15  3  2  0  0  0  0
 15 16  1  0  0  0  0
  2 17  1  0  0  0  0
M  END
> <ChemID>
104251

> <source_casrn>
2251-65-2

> <CAS>
2251-65-2

> <SMILES>
O=C(Cl)c1cc(ccc1)C(F)(F)F

> <NAME>
Benzoyl chloride, 3-(trifluoromethyl)-

> <preferred_name>
Benzoyl chloride, 3-(trifluoromethyl)-

> <iupac>
3-(Trifluoromethyl)benzoyl chloride

> <MPID>
23162

> <dsstox_substance_id>
DTXSID2062294

> <Canonical_QSARr>
O=C(Cl)c1cc(ccc1)C(F)(F)F

> <InChI_Code_QSARr>
InChI=1S/C8H4ClF3O/c9-7(13)5-2-1-3-6(4-5)8(10,11)12/h1-4H

> <InChI Key_QSARr>
RUJYJCANMOTJMO-UHFFFAOYSA-N

> <Salt_Solvent>
?

> <BP>
187.0

$$$$
104255
  -INDIGO-08031720192D

 28 29  0  0  0  0  0  0  0  0999 V2000
    4.8000    0.0000    0.0000 N   0  0  0  0  0  0  0  0  0  0  0  0
    5.5999    1.3856    0.0000 C   0  0  0  0  0  0  0  0  0  0  0  0
    4.8000    2.7713    0.0000 H   0  0  0  0  0  0  0  0  0  0  0  0
    7.2001    1.3856    0.0000 C   0  0  0  0  0  0  0  0  0  0  0  0
    8.0000    0.0000    0.0000 C   0  0  0  0  0  0  0  0  0  0  0  0
    7.2001   -1.3856    0.0000 H   0  0  0  0  0  0  0  0  0  0  0  0
    9.5999    0.0000    0.0000 C   0  0  0  0  0  0  0  0  0  0  0  0
   10.4001   -1.3856    0.0000 H   0  0  0  0  0  0  0  0  0  0  0  0
   10.4001    1.3856    0.0000 C   0  0  0  0  0  0  0  0  0  0  0  0
   12.0000    1.3856    0.0000 H   0  0  0  0  0  0  0  0  0  0  0  0
    9.5999    2.7713    0.0000 C   0  0  0  0  0  0  0  0  0  0  0  0
   10.4001    4.1569    0.0000 H   0  0  0  0  0  0  0  0  0  0  0  0
    8.0000    2.7713    0.0000 C   0  0  0  0  0  0  0  0  0  0  0  0
    7.2001    4.1569    0.0000 H   0  0  0  0  0  0  0  0  0  0  0  0
    3.2001    0.0000    0.0000 C   0  0  0  0  0  0  0  0  0  0  0  0
    2.3999    1.3856    0.0000 C   0  0  0  0  0  0  0  0  0  0  0  0
    3.2001    2.7713    0.0000 H   0  0  0  0  0  0  0  0  0  0  0  0
    0.8000    1.3856    0.0000 C   0  0  0  0  0  0  0  0  0  0  0  0
    0.0000    2.7713    0.0000 H   0  0  0  0  0  0  0  0  0  0  0  0
    0.0000    0.0000    0.0000 C   0  0  0  0  0  0  0  0  0  0  0  0
   -1.6001    0.0000    0.0000 C   0  0  0  0  0  0  0  0  0  0  0  0
   -3.2000    0.0000    0.0000 H   0  0  0  0  0  0  0  0  0  0  0  0
   -2.4000   -1.3856    0.0000 H   0  0  0  0  0  0  0  0  0  0  0  0
   -2.4000    1.3856    0.0000 H   0  0  0  0  0  0  0  0  0  0  0  0
    0.8000   -1.3856    0.0000 C   0  0  0  0  0  0  0  0  0  0  0  0
    0.0000   -2.7713    0.0000 H   0  0  0  0  0  0  0  0  0  0  0  0
    2.3999   -1.3856    0.0000 C   0  0  0  0  0  0  0  0  0  0  0  0
    3.2001   -2.7713    0.0000 H   0  0  0  0  0  0  0  0  0  0  0  0
  1  2  2  0  0  0  0
  2  3  1  0  0  0  0
  2  4  1  0  0  0  0
  4  5  1  0  0  0  0
  5  6  1  0  0  0  0
  5  7  2  0  0  0  0
  7  8  1  0  0  0  0
  7  9  1  0  0  0  0
  9 10  1  0  0  0  0
  9 11  2  0  0  0  0
 11 12  1  0  0  0  0
 11 13  1  0  0  0  0
 13  4  2  0  0  0  0
 13 14  1  0  0  0  0
  1 15  1  0  0  0  0
 15 16  1  0  0  0  0
 16 17  1  0  0  0  0
 16 18  2  0  0  0  0
 18 19  1  0  0  0  0
 18 20  1  0  0  0  0
 20 21  1  0  0  0  0
 21 22  1  0  0  0  0
 21 23  1  0  0  0  0
 21 24  1  0  0  0  0
 20 25  2  0  0  0  0
 25 26  1  0  0  0  0
 25 27  1  0  0  0  0
 27 15  2  0  0  0  0
 27 28  1  0  0  0  0
M  END
> <ChemID>
104255

> <source_casrn>
2272-45-9

> <CAS>
NOCAS_870953

> <SMILES>
Cc1ccc(cc1)N=Cc1ccccc1

> <NAME>
Benzylidene-p-tolyl-amine

> <preferred_name>


> <iupac>


> <MPID>
23166

> <dsstox_substance_id>
DTXSID10870953

> <Canonical_QSARr>
Cc1ccc(cc1)N=Cc1ccccc1

> <InChI_Code_QSARr>
InChI=1S/C14H13N/c1-12-7-9-14(10-8-12)15-11-13-5-3-2-4-6-13/h2-11H,1H3/b15-11+

> <InChI Key_QSARr>
MSFVFFZPHJPOHP-RVDMUPIBSA-N

> <Salt_Solvent>
?

> <BP>
318.0

$$$$
104259
  -INDIGO-08031720192D

 31 30  0  0  0  0  0  0  0  0999 V2000
    0.0001    0.0000    0.0000 C   0  0  0  0  0  0  0  0  0  0  0  0
    0.6123   -1.4782    0.0000 H   0  0  0  0  0  0  0  0  0  0  0  0
   -0.6122   -1.4782    0.0000 H   0  0  0  0  0  0  0  0  0  0  0  0
    1.3856    0.8000    0.0000 C   0  0  0  0  0  0  0  0  0  0  0  0
    0.7734    2.2782    0.0000 H   0  0  0  0  0  0  0  0  0  0  0  0
    1.9979    2.2782    0.0000 H   0  0  0  0  0  0  0  0  0  0  0  0
    2.7712    0.0000    0.0000 C   0  0  0  0  0  0  0  0  0  0  0  0
    3.3835   -1.4782    0.0000 H   0  0  0  0  0  0  0  0  0  0  0  0
    2.1590   -1.4782    0.0000 H   0  0  0  0  0  0  0  0  0  0  0  0
    4.1568    0.8000    0.0000 C   0  0  0  0  0  0  0  0  0  0  0  0
    5.5426    1.6000    0.0000 C   0  0  0  0  0  0  0  0  0  0  0  0
    6.9282    2.4000    0.0000 C   0  0  0  0  0  0  0  0  0  0  0  0
    6.3160    3.8782    0.0000 H   0  0  0  0  0  0  0  0  0  0  0  0
    7.5404    3.8782    0.0000 H   0  0  0  0  0  0  0  0  0  0  0  0
    8.3138    1.6000    0.0000 C   0  0  0  0  0  0  0  0  0  0  0  0
    8.9260    0.1218    0.0000 H   0  0  0  0  0  0  0  0  0  0  0  0
    7.7015    0.1218    0.0000 H   0  0  0  0  0  0  0  0  0  0  0  0
    9.6996    2.4000    0.0000 C   0  0  0  0  0  0  0  0  0  0  0  0
    9.0871    3.8782    0.0000 H   0  0  0  0  0  0  0  0  0  0  0  0
   10.3118    3.8782    0.0000 H   0  0  0  0  0  0  0  0  0  0  0  0
   11.0852    1.6000    0.0000 C   0  0  0  0  0  0  0  0  0  0  0  0
   12.4708    0.8000    0.0000 H   0  0  0  0  0  0  0  0  0  0  0  0
   12.4708    2.4000    0.0000 H   0  0  0  0  0  0  0  0  0  0  0  0
   11.0852    0.0000    0.0000 H   0  0  0  0  0  0  0  0  0  0  0  0
   -1.3858    0.8000    0.0000 C   0  0  0  0  0  0  0  0  0  0  0  0
   -1.9980    2.2782    0.0000 H   0  0  0  0  0  0  0  0  0  0  0  0
   -0.7733    2.2782    0.0000 H   0  0  0  0  0  0  0  0  0  0  0  0
   -2.7713    0.0000    0.0000 C   0  0  0  0  0  0  0  0  0  0  0  0
   -4.1569   -0.8000    0.0000 H   0  0  0  0  0  0  0  0  0  0  0  0
   -4.1569    0.8000    0.0000 H   0  0  0  0  0  0  0  0  0  0  0  0
   -2.7713   -1.6000    0.0000 H   0  0  0  0  0  0  0  0  0  0  0  0
  1  2  1  0  0  0  0
  1  3  1  0  0  0  0
  1  4  1  0  0  0  0
  4  5  1  0  0  0  0
  4  6  1  0  0  0  0
  4  7  1  0  0  0  0
  7  8  1  0  0  0  0
  7  9  1  0  0  0  0
  7 10  1  0  0  0  0
 10 11  3  0  0  0  0
 11 12  1  0  0  0  0
 12 13  1  0  0  0  0
 12 14  1  0  0  0  0
 12 15  1  0  0  0  0
 15 16  1  0  0  0  0
 15 17  1  0  0  0  0
 15 18  1  0  0  0  0
 18 19  1  0  0  0  0
 18 20  1  0  0  0  0
 18 21  1  0  0  0  0
 21 22  1  0  0  0  0
 21 23  1  0  0  0  0
 21 24  1  0  0  0  0
  1 25  1  0  0  0  0
 25 26  1  0  0  0  0
 25 27  1  0  0  0  0
 25 28  1  0  0  0  0
 28 29  1  0  0  0  0
 28 30  1  0  0  0  0
 28 31  1  0  0  0  0
M  END
> <ChemID>
104259

> <source_casrn>
2294-72-6

> <CAS>
2294-72-6

> <SMILES>
CCCCCC#CCCCC

> <NAME>
5-UNDECYNE

> <preferred_name>
5-Undecyne

> <iupac>
undec-5-yne

> <MPID>
23170

> <dsstox_substance_id>
DTXSID40177482

> <Canonical_QSARr>
CCCCCC#CCCCC

> <InChI_Code_QSARr>
InChI=1S/C11H20/c1-3-5-7-9-11-10-8-6-4-2/h3-9H2,1-2H3

> <InChI Key_QSARr>
VRQLDBSWBBKOCR-UHFFFAOYSA-N

> <Salt_Solvent>
?

> <BP>
198.0

$$$$
104263
  -INDIGO-08031720192D

  5  4  0  0  0  0  0  0  0  0999 V2000
    0.0000    0.0000    0.0000 C   0  0  0  0  0  0  0  0  0  0  0  0
    0.8000    1.3856    0.0000 F   0  0  0  0  0  0  0  0  0  0  0  0
   -1.3856    0.8000    0.0000 F   0  0  0  0  0  0  0  0  0  0  0  0
    1.3856   -0.8000    0.0000 F   0  0  0  0  0  0  0  0  0  0  0  0
   -0.8000   -1.3856    0.0000 I   0  0  0  0  0  0  0  0  0  0  0  0
  1  2  1  0  0  0  0
  1  3  1  0  0  0  0
  1  4  1  0  0  0  0
  1  5  1  0  0  0  0
M  END
> <ChemID>
104263

> <source_casrn>
2314-97-8

> <CAS>
2314-97-8

> <SMILES>
FC(F)(F)I

> <NAME>
Methane, trifluoroiodo-

> <preferred_name>
Trifluoroiodomethane

> <iupac>
trifluoro-iodomethane

> <MPID>
23174

> <dsstox_substance_id>
DTXSID2062325

> <Canonical_QSARr>
FC(F)(F)I

> <InChI_Code_QSARr>
InChI=1S/CF3I/c2-1(3,4)5

> <InChI Key_QSARr>
VPAYJEUHKVESSD-UHFFFAOYSA-N

> <Salt_Solvent>
?

> <BP>
-22.5

$$$$
104267
  -INDIGO-08031720192D

 17 16  0  0  0  0  0  0  0  0999 V2000
   -2.4000   -1.3856    0.0000 Cl  0  0  0  0  0  0  0  0  0  0  0  0
   -0.8000   -1.3856    0.0000 C   0  0  0  0  0  0  0  0  0  0  0  0
   -1.6000   -2.7713    0.0000 H   0  0  0  0  0  0  0  0  0  0  0  0
    0.0000   -2.7713    0.0000 H   0  0  0  0  0  0  0  0  0  0  0  0
    0.0000    0.0000    0.0000 Si  0  0  0  0  0  0  0  0  0  0  0  0
    0.8000    1.3856    0.0000 C   0  0  0  0  0  0  0  0  0  0  0  0
    1.6000    2.7713    0.0000 H   0  0  0  0  0  0  0  0  0  0  0  0
    2.4000    1.3856    0.0000 H   0  0  0  0  0  0  0  0  0  0  0  0
    0.0000    2.7713    0.0000 H   0  0  0  0  0  0  0  0  0  0  0  0
   -1.3856    0.8000    0.0000 C   0  0  0  0  0  0  0  0  0  0  0  0
   -2.7713    1.6000    0.0000 H   0  0  0  0  0  0  0  0  0  0  0  0
   -2.7713    0.0000    0.0000 H   0  0  0  0  0  0  0  0  0  0  0  0
   -1.3856    2.4000    0.0000 H   0  0  0  0  0  0  0  0  0  0  0  0
    1.3856   -0.8000    0.0000 C   0  0  0  0  0  0  0  0  0  0  0  0
    2.7713   -1.6000    0.0000 H   0  0  0  0  0  0  0  0  0  0  0  0
    1.3856   -2.4000    0.0000 H   0  0  0  0  0  0  0  0  0  0  0  0
    2.7713    0.0000    0.0000 H   0  0  0  0  0  0  0  0  0  0  0  0
  1  2  1  0  0  0  0
  2  3  1  0  0  0  0
  2  4  1  0  0  0  0
  2  5  1  0  0  0  0
  5  6  1  0  0  0  0
  6  7  1  0  0  0  0
  6  8  1  0  0  0  0
  6  9  1  0  0  0  0
  5 10  1  0  0  0  0
 10 11  1  0  0  0  0
 10 12  1  0  0  0  0
 10 13  1  0  0  0  0
  5 14  1  0  0  0  0
 14 15  1  0  0  0  0
 14 16  1  0  0  0  0
 14 17  1  0  0  0  0
M  END
> <ChemID>
104267

> <source_casrn>
2344-80-1

> <CAS>
2344-80-1

> <SMILES>
C[Si](C)(C)CCl

> <NAME>
SILANE, (CHLOROMETHYL)TRIMETHYL-

> <preferred_name>
Silane, (chloromethyl)trimethyl-

> <iupac>
chloromethyl-trimethylsilane

> <MPID>
23178

> <dsstox_substance_id>
DTXSID1062330

> <Canonical_QSARr>
C[Si](C)(C)CCl

> <InChI_Code_QSARr>
InChI=1S/C4H11ClSi/c1-6(2,3)4-5/h4H2,1-3H3

> <InChI Key_QSARr>
OOCUOKHIVGWCTJ-UHFFFAOYSA-N

> <Salt_Solvent>
?

> <BP>
98.5

$$$$
104271
  -INDIGO-08031720192D

 20 19  0  0  0  0  0  0  0  0999 V2000
    2.7713    0.0000    0.0000 C   0  0  0  0  0  0  0  0  0  0  0  0
    4.1569    0.8000    0.0000 H   0  0  0  0  0  0  0  0  0  0  0  0
    4.1569   -0.8000    0.0000 H   0  0  0  0  0  0  0  0  0  0  0  0
    2.7713    1.6000    0.0000 H   0  0  0  0  0  0  0  0  0  0  0  0
    1.3857   -0.8000    0.0000 C   0  0  0  0  0  0  0  0  0  0  0  0
    0.7734   -2.2782    0.0000 H   0  0  0  0  0  0  0  0  0  0  0  0
    1.9980   -2.2782    0.0000 H   0  0  0  0  0  0  0  0  0  0  0  0
    0.0001    0.0000    0.0000 C   0  0  0  0  0  0  0  0  0  0  0  0
    0.6124    1.4782    0.0000 H   0  0  0  0  0  0  0  0  0  0  0  0
   -1.3857   -0.8000    0.0000 C   0  0  0  0  0  0  0  0  0  0  0  0
   -1.9980   -2.2782    0.0000 H   0  0  0  0  0  0  0  0  0  0  0  0
   -0.7734   -2.2782    0.0000 H   0  0  0  0  0  0  0  0  0  0  0  0
   -2.7713    0.0000    0.0000 C   0  0  0  0  0  0  0  0  0  0  0  0
   -2.1590    1.4782    0.0000 H   0  0  0  0  0  0  0  0  0  0  0  0
   -3.3836    1.4782    0.0000 H   0  0  0  0  0  0  0  0  0  0  0  0
   -4.1569   -0.8000    0.0000 C   0  0  0  0  0  0  0  0  0  0  0  0
   -5.5426   -1.6000    0.0000 H   0  0  0  0  0  0  0  0  0  0  0  0
   -5.5426    0.0000    0.0000 H   0  0  0  0  0  0  0  0  0  0  0  0
   -4.1569   -2.4000    0.0000 H   0  0  0  0  0  0  0  0  0  0  0  0
   -0.6122    1.4782    0.0000 Cl  0  0  0  0  0  0  0  0  0  0  0  0
  1  2  1  0  0  0  0
  1  3  1  0  0  0  0
  1  4  1  0  0  0  0
  1  5  1  0  0  0  0
  5  6  1  0  0  0  0
  5  7  1  0  0  0  0
  5  8  1  0  0  0  0
  8  9  1  0  0  0  0
  8 10  1  0  0  0  0
 10 11  1  0  0  0  0
 10 12  1  0  0  0  0
 10 13  1  0  0  0  0
 13 14  1  0  0  0  0
 13 15  1  0  0  0  0
 13 16  1  0  0  0  0
 16 17  1  0  0  0  0
 16 18  1  0  0  0  0
 16 19  1  0  0  0  0
  8 20  1  0  0  0  0
M  END
> <ChemID>
104271

> <source_casrn>
2346-81-8

> <CAS>
NOCAS_870956

> <SMILES>
CCC(Cl)CCC

> <NAME>
Hexane, 3-chloro-

> <preferred_name>


> <iupac>


> <MPID>
23182

> <dsstox_substance_id>
DTXSID90870956

> <Canonical_QSARr>
CCC(Cl)CCC

> <InChI_Code_QSARr>
InChI=1S/C6H13Cl/c1-3-5-6(7)4-2/h6H,3-5H2,1-2H3

> <InChI Key_QSARr>
BXSMMAVTEURRGG-UHFFFAOYSA-N

> <Salt_Solvent>
?

> <BP>
123.0

$$$$
104275
  -INDIGO-08031720192D

 12 12  0  0  0  0  0  0  0  0999 V2000
    0.8000    1.3856    0.0000 F   0  0  0  0  0  0  0  0  0  0  0  0
   -0.0000   -0.0000    0.0000 C   0  0  0  0  0  0  0  0  0  0  0  0
    0.8000   -1.3857    0.0000 C   0  0  0  0  0  0  0  0  0  0  0  0
    2.4000   -1.3857    0.0000 F   0  0  0  0  0  0  0  0  0  0  0  0
   -0.0000   -2.7713    0.0000 C   0  0  0  0  0  0  0  0  0  0  0  0
    0.8000   -4.1569    0.0000 H   0  0  0  0  0  0  0  0  0  0  0  0
   -1.6000   -2.7713    0.0000 C   0  0  0  0  0  0  0  0  0  0  0  0
   -2.4000   -4.1569    0.0000 F   0  0  0  0  0  0  0  0  0  0  0  0
   -2.4000   -1.3856    0.0000 C   0  0  0  0  0  0  0  0  0  0  0  0
   -4.0000   -1.3856    0.0000 H   0  0  0  0  0  0  0  0  0  0  0  0
   -1.6000   -0.0000    0.0000 C   0  0  0  0  0  0  0  0  0  0  0  0
   -2.4000    1.3856    0.0000 F   0  0  0  0  0  0  0  0  0  0  0  0
  1  2  1  0  0  0  0
  2  3  1  0  0  0  0
  3  4  1  0  0  0  0
  3  5  2  0  0  0  0
  5  6  1  0  0  0  0
  5  7  1  0  0  0  0
  7  8  1  0  0  0  0
  7  9  2  0  0  0  0
  9 10  1  0  0  0  0
  9 11  1  0  0  0  0
 11  2  2  0  0  0  0
 11 12  1  0  0  0  0
M  END
> <ChemID>
104275

> <source_casrn>
2367-82-0

> <CAS>
2367-82-0

> <SMILES>
Fc1cc(F)c(F)c(F)c1

> <NAME>
1,2,3,5-TETRAFLUOROBENZENE

> <preferred_name>
1,2,3,5-Tetrafluorobenzene

> <iupac>
1,2,3,5-TETRAFLUOROBENZENE

> <MPID>
23186

> <dsstox_substance_id>
DTXSID10178340

> <Canonical_QSARr>
Fc1cc(F)c(F)c(F)c1

> <InChI_Code_QSARr>
InChI=1S/C6H2F4/c7-3-1-4(8)6(10)5(9)2-3/h1-2H

> <InChI Key_QSARr>
UHHYOKRQTQBKSB-UHFFFAOYSA-N

> <Salt_Solvent>
?

> <BP>
84.4

$$$$
104279
  -INDIGO-08031720192D

  9  8  0  0  0  0  0  0  0  0999 V2000
   -1.3856   -0.8000    0.0000 Cl  0  0  0  0  0  0  0  0  0  0  0  0
    0.0000    0.0000    0.0000 C   0  0  0  0  0  0  0  0  0  0  0  0
   -1.3856    0.8000    0.0000 H   0  0  0  0  0  0  0  0  0  0  0  0
    0.0000    1.6000    0.0000 H   0  0  0  0  0  0  0  0  0  0  0  0
    1.3856   -0.8000    0.0000 S   0  0  0  0  0  0  0  0  0  0  0  0
    2.7713    0.0000    0.0000 C   0  0  0  0  0  0  0  0  0  0  0  0
    4.1569    0.8000    0.0000 H   0  0  0  0  0  0  0  0  0  0  0  0
    4.1569   -0.8000    0.0000 H   0  0  0  0  0  0  0  0  0  0  0  0
    2.7713    1.6000    0.0000 H   0  0  0  0  0  0  0  0  0  0  0  0
  1  2  1  0  0  0  0
  2  3  1  0  0  0  0
  2  4  1  0  0  0  0
  2  5  1  0  0  0  0
  5  6  1  0  0  0  0
  6  7  1  0  0  0  0
  6  8  1  0  0  0  0
  6  9  1  0  0  0  0
M  END
> <ChemID>
104279

> <source_casrn>
2373-51-5

> <CAS>
2373-51-5

> <SMILES>
CSCCl

> <NAME>
Chloromethyl methyl sulfide

> <preferred_name>
Chlorodimethyl sulfide

> <iupac>
chloro-methylsulfanylmethane

> <MPID>
23190

> <dsstox_substance_id>
DTXSID10178406

> <Canonical_QSARr>
CSCCl

> <InChI_Code_QSARr>
InChI=1S/C2H5ClS/c1-4-2-3/h2H2,1H3

> <InChI Key_QSARr>
JWMLCCRPDOIBAV-UHFFFAOYSA-N

> <Salt_Solvent>
?

> <BP>
105.0

$$$$
104283
  -INDIGO-08031720192D

 19 18  0  0  0  0  0  0  0  0999 V2000
    5.5425    1.6000    0.0000 C   0  0  0  0  0  0  0  0  0  0  0  0
    6.9282    0.8000    0.0000 H   0  0  0  0  0  0  0  0  0  0  0  0
    5.5425    3.2000    0.0000 H   0  0  0  0  0  0  0  0  0  0  0  0
    4.1569    0.8000    0.0000 C   0  0  0  0  0  0  0  0  0  0  0  0
    2.7712    0.0000    0.0000 C   0  0  0  0  0  0  0  0  0  0  0  0
    2.7712   -1.6000    0.0000 H   0  0  0  0  0  0  0  0  0  0  0  0
    1.3857    0.8000    0.0000 C   0  0  0  0  0  0  0  0  0  0  0  0
    1.9979    2.2782    0.0000 H   0  0  0  0  0  0  0  0  0  0  0  0
    0.7734    2.2782    0.0000 H   0  0  0  0  0  0  0  0  0  0  0  0
    0.0001    0.0000    0.0000 C   0  0  0  0  0  0  0  0  0  0  0  0
   -0.6123   -1.4782    0.0000 H   0  0  0  0  0  0  0  0  0  0  0  0
    0.6122   -1.4782    0.0000 H   0  0  0  0  0  0  0  0  0  0  0  0
   -1.3856    0.8000    0.0000 C   0  0  0  0  0  0  0  0  0  0  0  0
   -0.7733    2.2782    0.0000 H   0  0  0  0  0  0  0  0  0  0  0  0
   -1.9979    2.2782    0.0000 H   0  0  0  0  0  0  0  0  0  0  0  0
   -2.7713    0.0000    0.0000 C   0  0  0  0  0  0  0  0  0  0  0  0
   -4.1569   -0.8000    0.0000 H   0  0  0  0  0  0  0  0  0  0  0  0
   -4.1569    0.8000    0.0000 H   0  0  0  0  0  0  0  0  0  0  0  0
   -2.7713   -1.6000    0.0000 H   0  0  0  0  0  0  0  0  0  0  0  0
  1  2  1  0  0  0  0
  1  3  1  0  0  0  0
  1  4  2  0  0  0  0
  4  5  2  0  0  0  0
  5  6  1  0  0  0  0
  5  7  1  0  0  0  0
  7  8  1  0  0  0  0
  7  9  1  0  0  0  0
  7 10  1  0  0  0  0
 10 11  1  0  0  0  0
 10 12  1  0  0  0  0
 10 13  1  0  0  0  0
 13 14  1  0  0  0  0
 13 15  1  0  0  0  0
 13 16  1  0  0  0  0
 16 17  1  0  0  0  0
 16 18  1  0  0  0  0
 16 19  1  0  0  0  0
M  END
> <ChemID>
104283

> <source_casrn>
2384-90-9

> <CAS>
NOCAS_870962

> <SMILES>
CCCCC=C=C

> <NAME>
1,2-HEPTADIENE

> <preferred_name>


> <iupac>


> <MPID>
23194

> <dsstox_substance_id>
DTXSID00870962

> <Canonical_QSARr>
CCCCC=C=C

> <InChI_Code_QSARr>
InChI=1S/C7H12/c1-3-5-7-6-4-2/h5H,1,4,6-7H2,2H3

> <InChI Key_QSARr>
OEMWTWLQGRYBGM-UHFFFAOYSA-N

> <Salt_Solvent>
?

> <BP>
105.5

$$$$
104288
  -INDIGO-08031720192D

 21 21  0  0  0  0  0  0  0  0999 V2000
   -4.0000    1.3856    0.0000 C   0  0  0  0  0  0  0  0  0  0  0  0
   -2.4000    1.3856    0.0000 C   0  0  0  0  0  0  0  0  0  0  0  0
   -1.6000    2.7713    0.0000 H   0  0  0  0  0  0  0  0  0  0  0  0
   -1.6000   -0.0000    0.0000 C   0  0  0  0  0  0  0  0  0  0  0  0
   -2.4000   -1.3856    0.0000 H   0  0  0  0  0  0  0  0  0  0  0  0
    0.0000   -0.0000    0.0000 C   0  0  0  0  0  0  0  0  0  0  0  0
    0.8000    1.3856    0.0000 C   0  0  0  0  0  0  0  0  0  0  0  0
    0.0000    2.7713    0.0000 H   0  0  0  0  0  0  0  0  0  0  0  0
    2.4000    1.3856    0.0000 C   0  0  0  0  0  0  0  0  0  0  0  0
    3.2000    2.7713    0.0000 H   0  0  0  0  0  0  0  0  0  0  0  0
    3.2000   -0.0000    0.0000 C   0  0  0  0  0  0  0  0  0  0  0  0
    4.8000   -0.0000    0.0000 N   0  0  0  0  0  0  0  0  0  0  0  0
    5.6000   -1.3856    0.0000 H   0  0  0  0  0  0  0  0  0  0  0  0
    5.6000    1.3856    0.0000 H   0  0  0  0  0  0  0  0  0  0  0  0
    2.4000   -1.3856    0.0000 C   0  0  0  0  0  0  0  0  0  0  0  0
    3.2000   -2.7713    0.0000 H   0  0  0  0  0  0  0  0  0  0  0  0
    0.8000   -1.3856    0.0000 C   0  0  0  0  0  0  0  0  0  0  0  0
    0.0000   -2.7713    0.0000 H   0  0  0  0  0  0  0  0  0  0  0  0
   -4.8000    2.7713    0.0000 O   0  0  0  0  0  0  0  0  0  0  0  0
   -6.4000    2.7713    0.0000 H   0  0  0  0  0  0  0  0  0  0  0  0
   -4.8000   -0.0000    0.0000 O   0  0  0  0  0  0  0  0  0  0  0  0
  1  2  1  0  0  0  0
  2  3  1  0  0  0  0
  2  4  2  0  0  0  0
  4  5  1  0  0  0  0
  4  6  1  0  0  0  0
  6  7  1  0  0  0  0
  7  8  1  0  0  0  0
  7  9  2  0  0  0  0
  9 10  1  0  0  0  0
  9 11  1  0  0  0  0
 11 12  1  0  0  0  0
 12 13  1  0  0  0  0
 12 14  1  0  0  0  0
 11 15  2  0  0  0  0
 15 16  1  0  0  0  0
 15 17  1  0  0  0  0
 17  6  2  0  0  0  0
 17 18  1  0  0  0  0
  1 19  1  0  0  0  0
 19 20  1  0  0  0  0
  1 21  2  0  0  0  0
M  END
> <ChemID>
104288

> <source_casrn>
2393-18-2

> <CAS>
NOCAS_870966

> <SMILES>
Nc1ccc(C=CC(O)=O)cc1

> <NAME>
2-Propenoic acid, 3-(4-aminophenyl)-

> <preferred_name>


> <iupac>


> <MPID>
23198

> <dsstox_substance_id>
DTXSID40870966

> <Canonical_QSARr>
Nc1ccc(C=CC(O)=O)cc1

> <InChI_Code_QSARr>
InChI=1S/C9H9NO2/c10-8-4-1-7(2-5-8)3-6-9(11)12/h1-6H,10H2,(H,11,12)/b6-3+

> <InChI Key_QSARr>
JOLPMPPNHIACPD-ZZXKWVIFSA-N

> <Salt_Solvent>
?

> <BP>
285.0

$$$$
104292
  -INDIGO-08031720192D

 21 20  0  0  0  0  0  0  0  0999 V2000
    0.0001    0.0000    0.0000 C   0  0  0  0  0  0  0  0  0  0  0  0
    0.6122   -1.4782    0.0000 H   0  0  0  0  0  0  0  0  0  0  0  0
   -0.6122   -1.4782    0.0000 H   0  0  0  0  0  0  0  0  0  0  0  0
   -1.3856    0.8000    0.0000 C   0  0  0  0  0  0  0  0  0  0  0  0
   -1.9980    2.2782    0.0000 H   0  0  0  0  0  0  0  0  0  0  0  0
   -0.7733    2.2782    0.0000 H   0  0  0  0  0  0  0  0  0  0  0  0
   -2.7712    0.0000    0.0000 C   0  0  0  0  0  0  0  0  0  0  0  0
   -2.1591   -1.4782    0.0000 H   0  0  0  0  0  0  0  0  0  0  0  0
   -3.3835   -1.4782    0.0000 H   0  0  0  0  0  0  0  0  0  0  0  0
   -4.1569    0.8000    0.0000 C   0  0  0  0  0  0  0  0  0  0  0  0
   -5.5425    1.6000    0.0000 C   0  0  0  0  0  0  0  0  0  0  0  0
   -6.9282    2.4000    0.0000 H   0  0  0  0  0  0  0  0  0  0  0  0
    1.3856    0.8000    0.0000 C   0  0  0  0  0  0  0  0  0  0  0  0
    0.7733    2.2782    0.0000 H   0  0  0  0  0  0  0  0  0  0  0  0
    1.9980    2.2782    0.0000 H   0  0  0  0  0  0  0  0  0  0  0  0
    2.7714    0.0000    0.0000 C   0  0  0  0  0  0  0  0  0  0  0  0
    3.3835   -1.4782    0.0000 H   0  0  0  0  0  0  0  0  0  0  0  0
    2.1591   -1.4782    0.0000 H   0  0  0  0  0  0  0  0  0  0  0  0
    4.1569    0.8000    0.0000 C   0  0  0  0  0  0  0  0  0  0  0  0
    5.5427    1.6000    0.0000 C   0  0  0  0  0  0  0  0  0  0  0  0
    6.9282    2.4000    0.0000 H   0  0  0  0  0  0  0  0  0  0  0  0
  1  2  1  0  0  0  0
  1  3  1  0  0  0  0
  1  4  1  0  0  0  0
  4  5  1  0  0  0  0
  4  6  1  0  0  0  0
  4  7  1  0  0  0  0
  7  8  1  0  0  0  0
  7  9  1  0  0  0  0
  7 10  1  0  0  0  0
 10 11  3  0  0  0  0
 11 12  1  0  0  0  0
  1 13  1  0  0  0  0
 13 14  1  0  0  0  0
 13 15  1  0  0  0  0
 13 16  1  0  0  0  0
 16 17  1  0  0  0  0
 16 18  1  0  0  0  0
 16 19  1  0  0  0  0
 19 20  3  0  0  0  0
 20 21  1  0  0  0  0
M  END
> <ChemID>
104292

> <source_casrn>
2396-65-8

> <CAS>
2396-65-8

> <SMILES>
C#CCCCCCC#C

> <NAME>
1,8-NONADIYNE

> <preferred_name>
1,8-Nonadiyne

> <iupac>
nona-1,8-diyne

> <MPID>
23202

> <dsstox_substance_id>
DTXSID7062374

> <Canonical_QSARr>
C#CCCCCCC#C

> <InChI_Code_QSARr>
InChI=1S/C9H12/c1-3-5-7-9-8-6-4-2/h1-2H,5-9H2

> <InChI Key_QSARr>
DMOVPHYFYSASTC-UHFFFAOYSA-N

> <Salt_Solvent>
?

> <BP>
162.0

$$$$
104296
  -INDIGO-08031720192D

 72 72  0  0  0  0  0  0  0  0999 V2000
   -0.0001   -0.0000    0.0000 C   0  0  0  0  0  0  0  0  0  0  0  0
    0.6124   -1.4782    0.0000 H   0  0  0  0  0  0  0  0  0  0  0  0
   -0.6120   -1.4782    0.0000 H   0  0  0  0  0  0  0  0  0  0  0  0
   -1.3854    0.8000    0.0000 C   0  0  0  0  0  0  0  0  0  0  0  0
   -1.9979    2.2782    0.0000 H   0  0  0  0  0  0  0  0  0  0  0  0
   -0.7734    2.2782    0.0000 H   0  0  0  0  0  0  0  0  0  0  0  0
   -2.7712   -0.0000    0.0000 C   0  0  0  0  0  0  0  0  0  0  0  0
   -2.1587   -1.4782    0.0000 H   0  0  0  0  0  0  0  0  0  0  0  0
   -3.3837   -1.4782    0.0000 H   0  0  0  0  0  0  0  0  0  0  0  0
   -4.1571    0.8000    0.0000 C   0  0  0  0  0  0  0  0  0  0  0  0
   -4.7690    2.2782    0.0000 H   0  0  0  0  0  0  0  0  0  0  0  0
   -3.5446    2.2782    0.0000 H   0  0  0  0  0  0  0  0  0  0  0  0
   -5.5424   -0.0000    0.0000 C   0  0  0  0  0  0  0  0  0  0  0  0
   -4.9304   -1.4782    0.0000 H   0  0  0  0  0  0  0  0  0  0  0  0
   -6.1549   -1.4782    0.0000 H   0  0  0  0  0  0  0  0  0  0  0  0
   -6.9282    0.8000    0.0000 C   0  0  0  0  0  0  0  0  0  0  0  0
   -7.5407    2.2782    0.0000 H   0  0  0  0  0  0  0  0  0  0  0  0
   -6.3157    2.2782    0.0000 H   0  0  0  0  0  0  0  0  0  0  0  0
   -8.3140   -0.0000    0.0000 C   0  0  0  0  0  0  0  0  0  0  0  0
   -7.7015   -1.4782    0.0000 H   0  0  0  0  0  0  0  0  0  0  0  0
   -8.9260   -1.4782    0.0000 H   0  0  0  0  0  0  0  0  0  0  0  0
   -9.6994    0.8000    0.0000 C   0  0  0  0  0  0  0  0  0  0  0  0
  -10.3118    2.2782    0.0000 H   0  0  0  0  0  0  0  0  0  0  0  0
   -9.0874    2.2782    0.0000 H   0  0  0  0  0  0  0  0  0  0  0  0
  -11.0852   -0.0000    0.0000 C   0  0  0  0  0  0  0  0  0  0  0  0
  -10.4727   -1.4782    0.0000 H   0  0  0  0  0  0  0  0  0  0  0  0
  -11.6972   -1.4782    0.0000 H   0  0  0  0  0  0  0  0  0  0  0  0
  -12.4705    0.8000    0.0000 C   0  0  0  0  0  0  0  0  0  0  0  0
  -13.0830    2.2782    0.0000 H   0  0  0  0  0  0  0  0  0  0  0  0
  -11.8585    2.2782    0.0000 H   0  0  0  0  0  0  0  0  0  0  0  0
  -13.8563   -0.0000    0.0000 C   0  0  0  0  0  0  0  0  0  0  0  0
  -15.2422    0.8000    0.0000 C   0  0  0  0  0  0  0  0  0  0  0  0
  -15.2422    2.4000    0.0000 H   0  0  0  0  0  0  0  0  0  0  0  0
  -16.6275   -0.0000    0.0000 C   0  0  0  0  0  0  0  0  0  0  0  0
  -18.0133    0.8000    0.0000 H   0  0  0  0  0  0  0  0  0  0  0  0
  -16.6275   -1.6000    0.0000 C   0  0  0  0  0  0  0  0  0  0  0  0
  -18.0133   -2.4000    0.0000 H   0  0  0  0  0  0  0  0  0  0  0  0
  -15.2422   -2.4000    0.0000 C   0  0  0  0  0  0  0  0  0  0  0  0
  -15.2422   -4.0000    0.0000 H   0  0  0  0  0  0  0  0  0  0  0  0
  -13.8563   -1.6000    0.0000 C   0  0  0  0  0  0  0  0  0  0  0  0
  -12.4705   -2.4000    0.0000 H   0  0  0  0  0  0  0  0  0  0  0  0
    1.3858    0.8000    0.0000 C   0  0  0  0  0  0  0  0  0  0  0  0
    0.7733    2.2782    0.0000 H   0  0  0  0  0  0  0  0  0  0  0  0
    1.9977    2.2782    0.0000 H   0  0  0  0  0  0  0  0  0  0  0  0
    2.7711   -0.0000    0.0000 C   0  0  0  0  0  0  0  0  0  0  0  0
    3.3836   -1.4782    0.0000 H   0  0  0  0  0  0  0  0  0  0  0  0
    2.1591   -1.4782    0.0000 H   0  0  0  0  0  0  0  0  0  0  0  0
    4.1569    0.8000    0.0000 C   0  0  0  0  0  0  0  0  0  0  0  0
    3.5444    2.2782    0.0000 H   0  0  0  0  0  0  0  0  0  0  0  0
    4.7694    2.2782    0.0000 H   0  0  0  0  0  0  0  0  0  0  0  0
    5.5428   -0.0000    0.0000 C   0  0  0  0  0  0  0  0  0  0  0  0
    6.1547   -1.4782    0.0000 H   0  0  0  0  0  0  0  0  0  0  0  0
    4.9303   -1.4782    0.0000 H   0  0  0  0  0  0  0  0  0  0  0  0
    6.9281    0.8000    0.0000 C   0  0  0  0  0  0  0  0  0  0  0  0
    6.3161    2.2782    0.0000 H   0  0  0  0  0  0  0  0  0  0  0  0
    7.5406    2.2782    0.0000 H   0  0  0  0  0  0  0  0  0  0  0  0
    8.3139   -0.0000    0.0000 C   0  0  0  0  0  0  0  0  0  0  0  0
    8.9264   -1.4782    0.0000 H   0  0  0  0  0  0  0  0  0  0  0  0
    7.7014   -1.4782    0.0000 H   0  0  0  0  0  0  0  0  0  0  0  0
    9.6997    0.8000    0.0000 C   0  0  0  0  0  0  0  0  0  0  0  0
    9.0873    2.2782    0.0000 H   0  0  0  0  0  0  0  0  0  0  0  0
   10.3117    2.2782    0.0000 H   0  0  0  0  0  0  0  0  0  0  0  0
   11.0851   -0.0000    0.0000 C   0  0  0  0  0  0  0  0  0  0  0  0
   11.6975   -1.4782    0.0000 H   0  0  0  0  0  0  0  0  0  0  0  0
   10.4731   -1.4782    0.0000 H   0  0  0  0  0  0  0  0  0  0  0  0
   12.4709    0.8000    0.0000 C   0  0  0  0  0  0  0  0  0  0  0  0
   11.8584    2.2782    0.0000 H   0  0  0  0  0  0  0  0  0  0  0  0
   13.0829    2.2782    0.0000 H   0  0  0  0  0  0  0  0  0  0  0  0
   13.8562   -0.0000    0.0000 C   0  0  0  0  0  0  0  0  0  0  0  0
   15.2420   -0.8000    0.0000 H   0  0  0  0  0  0  0  0  0  0  0  0
   15.2420    0.8000    0.0000 H   0  0  0  0  0  0  0  0  0  0  0  0
   13.8562   -1.6000    0.0000 H   0  0  0  0  0  0  0  0  0  0  0  0
  1  2  1  0  0  0  0
  1  3  1  0  0  0  0
  1  4  1  0  0  0  0
  4  5  1  0  0  0  0
  4  6  1  0  0  0  0
  4  7  1  0  0  0  0
  7  8  1  0  0  0  0
  7  9  1  0  0  0  0
  7 10  1  0  0  0  0
 10 11  1  0  0  0  0
 10 12  1  0  0  0  0
 10 13  1  0  0  0  0
 13 14  1  0  0  0  0
 13 15  1  0  0  0  0
 13 16  1  0  0  0  0
 16 17  1  0  0  0  0
 16 18  1  0  0  0  0
 16 19  1  0  0  0  0
 19 20  1  0  0  0  0
 19 21  1  0  0  0  0
 19 22  1  0  0  0  0
 22 23  1  0  0  0  0
 22 24  1  0  0  0  0
 22 25  1  0  0  0  0
 25 26  1  0  0  0  0
 25 27  1  0  0  0  0
 25 28  1  0  0  0  0
 28 29  1  0  0  0  0
 28 30  1  0  0  0  0
 28 31  1  0  0  0  0
 31 32  1  0  0  0  0
 32 33  1  0  0  0  0
 32 34  2  0  0  0  0
 34 35  1  0  0  0  0
 34 36  1  0  0  0  0
 36 37  1  0  0  0  0
 36 38  2  0  0  0  0
 38 39  1  0  0  0  0
 38 40  1  0  0  0  0
 40 31  2  0  0  0  0
 40 41  1  0  0  0  0
  1 42  1  0  0  0  0
 42 43  1  0  0  0  0
 42 44  1  0  0  0  0
 42 45  1  0  0  0  0
 45 46  1  0  0  0  0
 45 47  1  0  0  0  0
 45 48  1  0  0  0  0
 48 49  1  0  0  0  0
 48 50  1  0  0  0  0
 48 51  1  0  0  0  0
 51 52  1  0  0  0  0
 51 53  1  0  0  0  0
 51 54  1  0  0  0  0
 54 55  1  0  0  0  0
 54 56  1  0  0  0  0
 54 57  1  0  0  0  0
 57 58  1  0  0  0  0
 57 59  1  0  0  0  0
 57 60  1  0  0  0  0
 60 61  1  0  0  0  0
 60 62  1  0  0  0  0
 60 63  1  0  0  0  0
 63 64  1  0  0  0  0
 63 65  1  0  0  0  0
 63 66  1  0  0  0  0
 66 67  1  0  0  0  0
 66 68  1  0  0  0  0
 66 69  1  0  0  0  0
 69 70  1  0  0  0  0
 69 71  1  0  0  0  0
 69 72  1  0  0  0  0
M  END
> <ChemID>
104296

> <source_casrn>
2398-68-7

> <CAS>
2398-68-7

> <SMILES>
CCCCCCCCCCCCCCCCCCCCc1ccccc1

> <NAME>
1-PHENYLEICOSANE

> <preferred_name>
1-Phenyleicosane

> <iupac>
icosylbenzene

> <MPID>
23206

> <dsstox_substance_id>
DTXSID50178703

> <Canonical_QSARr>
CCCCCCCCCCCCCCCCCCCCc1ccccc1

> <InChI_Code_QSARr>
InChI=1S/C26H46/c1-2-3-4-5-6-7-8-9-10-11-12-13-14-15-16-17-18-20-23-26-24-21-19-22-25-26/h19,21-22,24-25H,2-18,20,23H2,1H3

> <InChI Key_QSARr>
HPPLZROUJULWGU-UHFFFAOYSA-N

> <Salt_Solvent>
?

> <BP>
429.0

$$$$
104301
  -INDIGO-08031720192D

 27 26  0  0  0  0  0  0  0  0999 V2000
   -0.0000    0.0000    0.0000 P   0  0  0  0  0  0  0  0  0  0  0  0
    0.8001   -1.3856    0.0000 O   0  0  0  0  0  0  0  0  0  0  0  0
    1.6000    0.0000    0.0000 O   0  0  0  0  0  0  0  0  0  0  0  0
    2.4000   -1.3856    0.0000 C   0  0  0  0  0  0  0  0  0  0  0  0
    1.1307   -2.3596    0.0000 H   0  0  0  0  0  0  0  0  0  0  0  0
    2.1911   -2.9720    0.0000 H   0  0  0  0  0  0  0  0  0  0  0  0
    4.0001   -1.3856    0.0000 C   0  0  0  0  0  0  0  0  0  0  0  0
    5.6000   -1.3856    0.0000 H   0  0  0  0  0  0  0  0  0  0  0  0
    4.8000   -2.7713    0.0000 H   0  0  0  0  0  0  0  0  0  0  0  0
    4.8000    0.0000    0.0000 H   0  0  0  0  0  0  0  0  0  0  0  0
    0.8001    1.3857    0.0000 O   0  0  0  0  0  0  0  0  0  0  0  0
    2.4000    1.3857    0.0000 C   0  0  0  0  0  0  0  0  0  0  0  0
    2.6089   -0.2007    0.0000 H   0  0  0  0  0  0  0  0  0  0  0  0
    3.6693    0.4116    0.0000 H   0  0  0  0  0  0  0  0  0  0  0  0
    3.2000    2.7713    0.0000 C   0  0  0  0  0  0  0  0  0  0  0  0
    4.0001    4.1569    0.0000 H   0  0  0  0  0  0  0  0  0  0  0  0
    2.4000    4.1569    0.0000 H   0  0  0  0  0  0  0  0  0  0  0  0
    4.8000    2.7713    0.0000 H   0  0  0  0  0  0  0  0  0  0  0  0
   -1.6000    0.0000    0.0000 N   0  0  0  0  0  0  0  0  0  0  0  0
   -2.3999   -1.3856    0.0000 C   0  0  0  0  0  0  0  0  0  0  0  0
   -3.2000   -2.7713    0.0000 H   0  0  0  0  0  0  0  0  0  0  0  0
   -4.0000   -1.3856    0.0000 H   0  0  0  0  0  0  0  0  0  0  0  0
   -1.6000   -2.7713    0.0000 H   0  0  0  0  0  0  0  0  0  0  0  0
   -2.4001    1.3857    0.0000 C   0  0  0  0  0  0  0  0  0  0  0  0
   -3.2000    2.7713    0.0000 H   0  0  0  0  0  0  0  0  0  0  0  0
   -4.0000    1.3857    0.0000 H   0  0  0  0  0  0  0  0  0  0  0  0
   -1.6000    2.7713    0.0000 H   0  0  0  0  0  0  0  0  0  0  0  0
  1  2  2  0  0  0  0
  1  3  1  0  0  0  0
  3  4  1  0  0  0  0
  4  5  1  0  0  0  0
  4  6  1  0  0  0  0
  4  7  1  0  0  0  0
  7  8  1  0  0  0  0
  7  9  1  0  0  0  0
  7 10  1  0  0  0  0
  1 11  1  0  0  0  0
 11 12  1  0  0  0  0
 12 13  1  0  0  0  0
 12 14  1  0  0  0  0
 12 15  1  0  0  0  0
 15 16  1  0  0  0  0
 15 17  1  0  0  0  0
 15 18  1  0  0  0  0
  1 19  1  0  0  0  0
 19 20  1  0  0  0  0
 20 21  1  0  0  0  0
 20 22  1  0  0  0  0
 20 23  1  0  0  0  0
 19 24  1  0  0  0  0
 24 25  1  0  0  0  0
 24 26  1  0  0  0  0
 24 27  1  0  0  0  0
M  END
> <ChemID>
104301

> <source_casrn>
2404-03-7

> <CAS>
NOCAS_870973

> <SMILES>
CN(C)P(=O)(OCC)OCC

> <NAME>
DIETHYL DIMETHYLPHOSPHORAMIDATE

> <preferred_name>


> <iupac>


> <MPID>
23211

> <dsstox_substance_id>
DTXSID10870973

> <Canonical_QSARr>
CN(C)P(=O)(OCC)OCC

> <InChI_Code_QSARr>
InChI=1S/C6H16NO3P/c1-5-9-11(8,7(3)4)10-6-2/h5-6H2,1-4H3

> <InChI Key_QSARr>
MSDFSXFZUKFPKX-UHFFFAOYSA-N

> <Salt_Solvent>
?

> <BP>
232.05

$$$$
104305
  -INDIGO-08031720192D

 28 28  0  0  0  0  0  0  0  0999 V2000
    0.8001    1.3857    0.0000 C   0  0  0  0  0  0  0  0  0  0  0  0
    1.8285    2.6113    0.0000 H   0  0  0  0  0  0  0  0  0  0  0  0
    0.2528    2.8891    0.0000 H   0  0  0  0  0  0  0  0  0  0  0  0
   -0.7757    1.6635    0.0000 H   0  0  0  0  0  0  0  0  0  0  0  0
   -0.0000    0.0000    0.0000 C   0  0  0  0  0  0  0  0  0  0  0  0
    1.3856   -0.8000    0.0000 C   0  0  0  0  0  0  0  0  0  0  0  0
    1.3856   -2.4000    0.0000 C   0  0  0  0  0  0  0  0  0  0  0  0
   -0.0000   -3.2000    0.0000 O   0  0  0  0  0  0  0  0  0  0  0  0
   -0.0000   -4.8000    0.0000 H   0  0  0  0  0  0  0  0  0  0  0  0
    2.7713   -3.2000    0.0000 C   0  0  0  0  0  0  0  0  0  0  0  0
    2.7713   -4.8000    0.0000 H   0  0  0  0  0  0  0  0  0  0  0  0
    4.1570   -2.4000    0.0000 C   0  0  0  0  0  0  0  0  0  0  0  0
    5.5425   -3.2000    0.0000 H   0  0  0  0  0  0  0  0  0  0  0  0
    4.1570   -0.8000    0.0000 C   0  0  0  0  0  0  0  0  0  0  0  0
    5.5425    0.0000    0.0000 C   0  0  0  0  0  0  0  0  0  0  0  0
    6.9282    0.8000    0.0000 H   0  0  0  0  0  0  0  0  0  0  0  0
    6.9282   -0.8000    0.0000 H   0  0  0  0  0  0  0  0  0  0  0  0
    5.5425    1.6001    0.0000 H   0  0  0  0  0  0  0  0  0  0  0  0
    2.7713    0.0000    0.0000 C   0  0  0  0  0  0  0  0  0  0  0  0
    2.7713    1.6001    0.0000 H   0  0  0  0  0  0  0  0  0  0  0  0
   -1.3856    0.8000    0.0000 C   0  0  0  0  0  0  0  0  0  0  0  0
   -2.7713    1.6001    0.0000 H   0  0  0  0  0  0  0  0  0  0  0  0
   -1.6635    2.3757    0.0000 H   0  0  0  0  0  0  0  0  0  0  0  0
   -2.8891    0.2528    0.0000 H   0  0  0  0  0  0  0  0  0  0  0  0
   -0.8000   -1.3856    0.0000 C   0  0  0  0  0  0  0  0  0  0  0  0
   -1.3472   -2.8892    0.0000 H   0  0  0  0  0  0  0  0  0  0  0  0
   -2.3756   -1.6634    0.0000 H   0  0  0  0  0  0  0  0  0  0  0  0
   -1.8284   -0.1600    0.0000 H   0  0  0  0  0  0  0  0  0  0  0  0
  1  2  1  0  0  0  0
  1  3  1  0  0  0  0
  1  4  1  0  0  0  0
  1  5  1  0  0  0  0
  5  6  1  0  0  0  0
  6  7  1  0  0  0  0
  7  8  1  0  0  0  0
  8  9  1  0  0  0  0
  7 10  2  0  0  0  0
 10 11  1  0  0  0  0
 10 12  1  0  0  0  0
 12 13  1  0  0  0  0
 12 14  2  0  0  0  0
 14 15  1  0  0  0  0
 15 16  1  0  0  0  0
 15 17  1  0  0  0  0
 15 18  1  0  0  0  0
 14 19  1  0  0  0  0
 19  6  2  0  0  0  0
 19 20  1  0  0  0  0
  5 21  1  0  0  0  0
 21 22  1  0  0  0  0
 21 23  1  0  0  0  0
 21 24  1  0  0  0  0
  5 25  1  0  0  0  0
 25 26  1  0  0  0  0
 25 27  1  0  0  0  0
 25 28  1  0  0  0  0
M  END
> <ChemID>
104305

> <source_casrn>
2409-55-4

> <CAS>
2409-55-4

> <SMILES>
Cc1ccc(O)c(c1)C(C)(C)C

> <NAME>
2-(TERT-BUTYL)-4-METHYLPHENOL

> <preferred_name>
2-tert-Butyl-4-methylphenol

> <iupac>
2-tert-butyl-4-methylphenol

> <MPID>
23215

> <dsstox_substance_id>
DTXSID2020212

> <Canonical_QSARr>
Cc1ccc(O)c(c1)C(C)(C)C

> <InChI_Code_QSARr>
InChI=1S/C11H16O/c1-8-5-6-10(12)9(7-8)11(2,3)4/h5-7,12H,1-4H3

> <InChI Key_QSARr>
IKEHOXWJQXIQAG-UHFFFAOYSA-N

> <Salt_Solvent>
?

> <BP>
237.0

$$$$
104310
  -INDIGO-08031720192D

 18 17  0  0  0  0  0  0  0  0999 V2000
   -2.7713    0.0000    0.0000 O   0  0  0  0  0  0  0  0  0  0  0  0
   -1.3857    0.8000    0.0000 C   0  0  0  0  0  0  0  0  0  0  0  0
   -1.3857    2.4000    0.0000 O   0  0  0  0  0  0  0  0  0  0  0  0
    0.0000    0.0000    0.0000 C   0  0  0  0  0  0  0  0  0  0  0  0
    1.3857   -0.8000    0.0000 H   0  0  0  0  0  0  0  0  0  0  0  0
    0.8000    1.3856    0.0000 C   0  0  0  0  0  0  0  0  0  0  0  0
    1.6001    2.7713    0.0000 H   0  0  0  0  0  0  0  0  0  0  0  0
    2.4000    1.3856    0.0000 H   0  0  0  0  0  0  0  0  0  0  0  0
    0.0000    2.7713    0.0000 H   0  0  0  0  0  0  0  0  0  0  0  0
   -0.7999   -1.3856    0.0000 C   0  0  0  0  0  0  0  0  0  0  0  0
   -1.6000   -2.7713    0.0000 H   0  0  0  0  0  0  0  0  0  0  0  0
    0.0000   -2.7713    0.0000 H   0  0  0  0  0  0  0  0  0  0  0  0
   -2.4000   -1.3856    0.0000 H   0  0  0  0  0  0  0  0  0  0  0  0
   -4.1569    0.8000    0.0000 C   0  0  0  0  0  0  0  0  0  0  0  0
   -4.1569    2.4000    0.0000 H   0  0  0  0  0  0  0  0  0  0  0  0
   -5.5425    0.0000    0.0000 C   0  0  0  0  0  0  0  0  0  0  0  0
   -6.9282    0.8000    0.0000 H   0  0  0  0  0  0  0  0  0  0  0  0
   -5.5425   -1.6000    0.0000 H   0  0  0  0  0  0  0  0  0  0  0  0
  1  2  1  0  0  0  0
  2  3  2  0  0  0  0
  2  4  1  0  0  0  0
  4  5  1  0  0  0  0
  4  6  1  0  0  0  0
  6  7  1  0  0  0  0
  6  8  1  0  0  0  0
  6  9  1  0  0  0  0
  4 10  1  0  0  0  0
 10 11  1  0  0  0  0
 10 12  1  0  0  0  0
 10 13  1  0  0  0  0
  1 14  1  0  0  0  0
 14 15  1  0  0  0  0
 14 16  2  0  0  0  0
 16 17  1  0  0  0  0
 16 18  1  0  0  0  0
M  END
> <ChemID>
104310

> <source_casrn>
2424-98-8

> <CAS>
2424-98-8

> <SMILES>
CC(C)C(=O)OC=C

> <NAME>
Isobutyric acid vinyl ester

> <preferred_name>
Vinyl isobutyrate

> <iupac>
Ethenyl 2-methylpropanoate

> <MPID>
23219

> <dsstox_substance_id>
DTXSID40178934

> <Canonical_QSARr>
CC(C)C(=O)OC=C

> <InChI_Code_QSARr>
InChI=1S/C6H10O2/c1-4-8-6(7)5(2)3/h4-5H,1H2,2-3H3

> <InChI Key_QSARr>
WNMORWGTPVWAIB-UHFFFAOYSA-N

> <Salt_Solvent>
?

> <BP>
104.5

$$$$
104314
  -INDIGO-08031720192D

 32 33  0  0  0  0  0  0  0  0999 V2000
    1.5036   -0.5472    0.0000 C   0  0  0  0  0  0  0  0  0  0  0  0
    2.3632   -1.8967    0.0000 H   0  0  0  0  0  0  0  0  0  0  0  0
    1.1572   -2.1093    0.0000 H   0  0  0  0  0  0  0  0  0  0  0  0
    2.7292    0.4812    0.0000 O   0  0  0  0  0  0  0  0  0  0  0  0
    4.2326   -0.0660    0.0000 C   0  0  0  0  0  0  0  0  0  0  0  0
    5.0924   -1.4154    0.0000 H   0  0  0  0  0  0  0  0  0  0  0  0
    3.8864   -1.6281    0.0000 H   0  0  0  0  0  0  0  0  0  0  0  0
    5.4585    0.9625    0.0000 C   0  0  0  0  0  0  0  0  0  0  0  0
    4.5987    2.3119    0.0000 H   0  0  0  0  0  0  0  0  0  0  0  0
    5.8047    2.5245    0.0000 H   0  0  0  0  0  0  0  0  0  0  0  0
    6.9618    0.4152    0.0000 C   0  0  0  0  0  0  0  0  0  0  0  0
    7.8216   -0.9342    0.0000 H   0  0  0  0  0  0  0  0  0  0  0  0
    6.6156   -1.1468    0.0000 H   0  0  0  0  0  0  0  0  0  0  0  0
    8.1877    1.4437    0.0000 C   0  0  0  0  0  0  0  0  0  0  0  0
    7.3279    2.7931    0.0000 H   0  0  0  0  0  0  0  0  0  0  0  0
    8.5339    3.0058    0.0000 H   0  0  0  0  0  0  0  0  0  0  0  0
    9.6910    0.8965    0.0000 O   0  0  0  0  0  0  0  0  0  0  0  0
   10.9166    1.9249    0.0000 C   0  0  0  0  0  0  0  0  0  0  0  0
   10.0571    3.2744    0.0000 H   0  0  0  0  0  0  0  0  0  0  0  0
   11.2631    3.4870    0.0000 H   0  0  0  0  0  0  0  0  0  0  0  0
   12.4202    1.3777    0.0000 C   0  0  0  0  0  0  0  0  0  0  0  0
   12.1425   -0.1980    0.0000 H   0  0  0  0  0  0  0  0  0  0  0  0
   14.0201    1.3777    0.0000 C   0  0  0  0  0  0  0  0  0  0  0  0
   14.2981   -0.1980    0.0000 H   0  0  0  0  0  0  0  0  0  0  0  0
   15.5237    1.9249    0.0000 H   0  0  0  0  0  0  0  0  0  0  0  0
   13.2203    2.7634    0.0000 O   0  0  0  0  0  0  0  0  0  0  0  0
    0.0000    0.0000    0.0000 C   0  0  0  0  0  0  0  0  0  0  0  0
    0.2777    1.5757    0.0000 H   0  0  0  0  0  0  0  0  0  0  0  0
   -1.5999    0.0000    0.0000 C   0  0  0  0  0  0  0  0  0  0  0  0
   -1.8779    1.5757    0.0000 H   0  0  0  0  0  0  0  0  0  0  0  0
   -3.1035   -0.5472    0.0000 H   0  0  0  0  0  0  0  0  0  0  0  0
   -0.8001   -1.3857    0.0000 O   0  0  0  0  0  0  0  0  0  0  0  0
  1  2  1  0  0  0  0
  1  3  1  0  0  0  0
  1  4  1  0  0  0  0
  4  5  1  0  0  0  0
  5  6  1  0  0  0  0
  5  7  1  0  0  0  0
  5  8  1  0  0  0  0
  8  9  1  0  0  0  0
  8 10  1  0  0  0  0
  8 11  1  0  0  0  0
 11 12  1  0  0  0  0
 11 13  1  0  0  0  0
 11 14  1  0  0  0  0
 14 15  1  0  0  0  0
 14 16  1  0  0  0  0
 14 17  1  0  0  0  0
 17 18  1  0  0  0  0
 18 19  1  0  0  0  0
 18 20  1  0  0  0  0
 18 21  1  0  0  0  0
 21 22  1  0  0  0  0
 21 23  1  0  0  0  0
 23 24  1  0  0  0  0
 23 25  1  0  0  0  0
 23 26  1  0  0  0  0
 26 21  1  0  0  0  0
  1 27  1  0  0  0  0
 27 28  1  0  0  0  0
 27 29  1  0  0  0  0
 29 30  1  0  0  0  0
 29 31  1  0  0  0  0
 29 32  1  0  0  0  0
 32 27  1  0  0  0  0
M  END
> <ChemID>
104314

> <source_casrn>
2425-79-8

> <CAS>
2425-79-8

> <SMILES>
C(OCCCCOCC1CO1)C1CO1

> <NAME>
Oxirane, 2,2'- 1,4-butanediylbis(oxymethylene) b

> <preferred_name>
1,4-Butanediol diglycidyl ether

> <iupac>
2,2'-[butane-1,4-diylbis(oxymethanediyl)]dioxirane

> <MPID>
23223

> <dsstox_substance_id>
DTXSID7024667

> <Canonical_QSARr>
C(OCCCCOCC1CO1)C1CO1

> <InChI_Code_QSARr>
InChI=1S/C10H18O4/c1(3-11-5-9-7-13-9)2-4-12-6-10-8-14-10/h9-10H,1-8H2

> <InChI Key_QSARr>
SHKUUQIDMUMQQK-UHFFFAOYSA-N

> <Salt_Solvent>
?

> <BP>
266.0

$$$$
104318
  -INDIGO-08031720192D

 16 16  0  0  0  0  0  0  0  0999 V2000
    3.2000   -0.0000    0.0000 C   0  0  0  0  0  0  0  0  0  0  0  0
    2.4000    1.3856    0.0000 C   0  0  0  0  0  0  0  0  0  0  0  0
    3.2000    2.7713    0.0000 Cl  0  0  0  0  0  0  0  0  0  0  0  0
    0.8000    1.3856    0.0000 C   0  0  0  0  0  0  0  0  0  0  0  0
    0.0000    2.7713    0.0000 H   0  0  0  0  0  0  0  0  0  0  0  0
    0.0000   -0.0000    0.0000 C   0  0  0  0  0  0  0  0  0  0  0  0
   -1.6001   -0.0000    0.0000 C   0  0  0  0  0  0  0  0  0  0  0  0
   -3.2000   -0.0000    0.0000 H   0  0  0  0  0  0  0  0  0  0  0  0
   -2.4000   -1.3856    0.0000 H   0  0  0  0  0  0  0  0  0  0  0  0
   -2.4000    1.3856    0.0000 H   0  0  0  0  0  0  0  0  0  0  0  0
    0.8000   -1.3856    0.0000 C   0  0  0  0  0  0  0  0  0  0  0  0
    0.0000   -2.7713    0.0000 H   0  0  0  0  0  0  0  0  0  0  0  0
    2.4000   -1.3856    0.0000 C   0  0  0  0  0  0  0  0  0  0  0  0
    3.2000   -2.7713    0.0000 Cl  0  0  0  0  0  0  0  0  0  0  0  0
    4.8000   -0.0000    0.0000 O   0  0  0  0  0  0  0  0  0  0  0  0
    5.6000    1.3856    0.0000 H   0  0  0  0  0  0  0  0  0  0  0  0
  1  2  1  0  0  0  0
  2  3  1  0  0  0  0
  2  4  2  0  0  0  0
  4  5  1  0  0  0  0
  4  6  1  0  0  0  0
  6  7  1  0  0  0  0
  7  8  1  0  0  0  0
  7  9  1  0  0  0  0
  7 10  1  0  0  0  0
  6 11  2  0  0  0  0
 11 12  1  0  0  0  0
 11 13  1  0  0  0  0
 13  1  2  0  0  0  0
 13 14  1  0  0  0  0
  1 15  1  0  0  0  0
 15 16  1  0  0  0  0
M  END
> <ChemID>
104318

> <source_casrn>
2432-12-4

> <CAS>
2432-12-4

> <SMILES>
Cc1cc(Cl)c(O)c(Cl)c1

> <NAME>
4-METHYL-2,6-DICHLOROPHENOL

> <preferred_name>
2,6-Dichloro-4-methylphenol

> <iupac>
2,6-Dichloro-4-methylphenol

> <MPID>
23227

> <dsstox_substance_id>
DTXSID1062415

> <Canonical_QSARr>
Cc1cc(Cl)c(O)c(Cl)c1

> <InChI_Code_QSARr>
InChI=1S/C7H6Cl2O/c1-4-2-5(8)7(10)6(9)3-4/h2-3,10H,1H3

> <InChI Key_QSARr>
YXEOEPYIBGTLML-UHFFFAOYSA-N

> <Salt_Solvent>
?

> <BP>
231.0

$$$$
104322
  -INDIGO-08031720192D

 23 24  0  0  0  0  0  0  0  0999 V2000
   -2.7713    0.0000    0.0000 N   0  0  0  0  0  0  0  0  0  0  0  0
   -1.3857    0.7999    0.0000 C   0  0  0  0  0  0  0  0  0  0  0  0
   -1.3857    2.4001    0.0000 C   0  0  0  0  0  0  0  0  0  0  0  0
    0.0001    3.2000    0.0000 C   0  0  0  0  0  0  0  0  0  0  0  0
    0.0001    4.8000    0.0000 H   0  0  0  0  0  0  0  0  0  0  0  0
    1.3857    2.4001    0.0000 C   0  0  0  0  0  0  0  0  0  0  0  0
    1.3857    0.8001    0.0000 C   0  0  0  0  0  0  0  0  0  0  0  0
    2.7713    0.0000    0.0000 H   0  0  0  0  0  0  0  0  0  0  0  0
    0.0001    0.0000    0.0000 C   0  0  0  0  0  0  0  0  0  0  0  0
    0.0001   -1.6000    0.0000 C   0  0  0  0  0  0  0  0  0  0  0  0
    0.0001   -3.2000    0.0000 H   0  0  0  0  0  0  0  0  0  0  0  0
    1.3857   -2.4001    0.0000 H   0  0  0  0  0  0  0  0  0  0  0  0
   -1.3857   -2.4001    0.0000 H   0  0  0  0  0  0  0  0  0  0  0  0
    2.7713    3.2000    0.0000 C   0  0  0  0  0  0  0  0  0  0  0  0
    4.1569    4.0001    0.0000 H   0  0  0  0  0  0  0  0  0  0  0  0
    2.7713    4.8000    0.0000 H   0  0  0  0  0  0  0  0  0  0  0  0
    4.1569    2.4001    0.0000 H   0  0  0  0  0  0  0  0  0  0  0  0
   -2.7713    3.2000    0.0000 C   0  0  0  0  0  0  0  0  0  0  0  0
   -2.7713    4.8000    0.0000 H   0  0  0  0  0  0  0  0  0  0  0  0
   -4.1569    2.3999    0.0000 C   0  0  0  0  0  0  0  0  0  0  0  0
   -5.5426    3.2000    0.0000 H   0  0  0  0  0  0  0  0  0  0  0  0
   -4.1569    0.8001    0.0000 C   0  0  0  0  0  0  0  0  0  0  0  0
   -5.5426    0.0000    0.0000 H   0  0  0  0  0  0  0  0  0  0  0  0
  1  2  1  0  0  0  0
  2  3  1  0  0  0  0
  3  4  2  0  0  0  0
  4  5  1  0  0  0  0
  4  6  1  0  0  0  0
  6  7  2  0  0  0  0
  7  8  1  0  0  0  0
  7  9  1  0  0  0  0
  9  2  2  0  0  0  0
  9 10  1  0  0  0  0
 10 11  1  0  0  0  0
 10 12  1  0  0  0  0
 10 13  1  0  0  0  0
  6 14  1  0  0  0  0
 14 15  1  0  0  0  0
 14 16  1  0  0  0  0
 14 17  1  0  0  0  0
  3 18  1  0  0  0  0
 18 19  1  0  0  0  0
 18 20  2  0  0  0  0
 20 21  1  0  0  0  0
 20 22  1  0  0  0  0
 22  1  2  0  0  0  0
 22 23  1  0  0  0  0
M  END
> <ChemID>
104322

> <source_casrn>
2436-93-3

> <CAS>
NOCAS_870975

> <SMILES>
Cc1cc2ccc[n]c2c(C)c1

> <NAME>
6,8-DIMETHYLQUINOLINE

> <preferred_name>


> <iupac>


> <MPID>
23231

> <dsstox_substance_id>
DTXSID30870975

> <Canonical_QSARr>
Cc1cc2ccc[n]c2c(C)c1

> <InChI_Code_QSARr>
InChI=1S/C11H11N/c1-8-6-9(2)11-10(7-8)4-3-5-12-11/h3-7H,1-2H3

> <InChI Key_QSARr>
RLZSSWLXBLSQKI-UHFFFAOYSA-N

> <Salt_Solvent>
?

> <BP>
268.5

$$$$
104326
  -INDIGO-08031720192D

 39 38  0  0  0  0  0  0  0  0999 V2000
    9.6995    0.8000    0.0000 C   0  0  0  0  0  0  0  0  0  0  0  0
   11.0851    0.0000    0.0000 H   0  0  0  0  0  0  0  0  0  0  0  0
    9.6995    2.4000    0.0000 H   0  0  0  0  0  0  0  0  0  0  0  0
    8.3139    0.0000    0.0000 C   0  0  0  0  0  0  0  0  0  0  0  0
    8.3139   -1.6000    0.0000 H   0  0  0  0  0  0  0  0  0  0  0  0
    6.9283    0.8000    0.0000 C   0  0  0  0  0  0  0  0  0  0  0  0
    6.3158    2.2782    0.0000 H   0  0  0  0  0  0  0  0  0  0  0  0
    7.5404    2.2782    0.0000 H   0  0  0  0  0  0  0  0  0  0  0  0
    5.5426    0.0000    0.0000 C   0  0  0  0  0  0  0  0  0  0  0  0
    6.1548   -1.4782    0.0000 H   0  0  0  0  0  0  0  0  0  0  0  0
    4.9302   -1.4782    0.0000 H   0  0  0  0  0  0  0  0  0  0  0  0
    4.1570    0.8000    0.0000 C   0  0  0  0  0  0  0  0  0  0  0  0
    3.5446    2.2782    0.0000 H   0  0  0  0  0  0  0  0  0  0  0  0
    4.7692    2.2782    0.0000 H   0  0  0  0  0  0  0  0  0  0  0  0
    2.7714    0.0000    0.0000 C   0  0  0  0  0  0  0  0  0  0  0  0
    3.3836   -1.4782    0.0000 H   0  0  0  0  0  0  0  0  0  0  0  0
    2.1590   -1.4782    0.0000 H   0  0  0  0  0  0  0  0  0  0  0  0
    1.3858    0.8000    0.0000 C   0  0  0  0  0  0  0  0  0  0  0  0
    0.7733    2.2782    0.0000 H   0  0  0  0  0  0  0  0  0  0  0  0
    1.9979    2.2782    0.0000 H   0  0  0  0  0  0  0  0  0  0  0  0
   -0.0001    0.0000    0.0000 C   0  0  0  0  0  0  0  0  0  0  0  0
    0.6123   -1.4782    0.0000 H   0  0  0  0  0  0  0  0  0  0  0  0
   -0.6123   -1.4782    0.0000 H   0  0  0  0  0  0  0  0  0  0  0  0
   -1.3857    0.8000    0.0000 C   0  0  0  0  0  0  0  0  0  0  0  0
   -1.9979    2.2782    0.0000 H   0  0  0  0  0  0  0  0  0  0  0  0
   -0.7733    2.2782    0.0000 H   0  0  0  0  0  0  0  0  0  0  0  0
   -2.7714    0.0000    0.0000 C   0  0  0  0  0  0  0  0  0  0  0  0
   -2.1589   -1.4782    0.0000 H   0  0  0  0  0  0  0  0  0  0  0  0
   -3.3835   -1.4782    0.0000 H   0  0  0  0  0  0  0  0  0  0  0  0
   -4.1570    0.8000    0.0000 C   0  0  0  0  0  0  0  0  0  0  0  0
   -4.7691    2.2782    0.0000 H   0  0  0  0  0  0  0  0  0  0  0  0
   -3.5445    2.2782    0.0000 H   0  0  0  0  0  0  0  0  0  0  0  0
   -5.5426    0.0000    0.0000 C   0  0  0  0  0  0  0  0  0  0  0  0
   -4.9302   -1.4782    0.0000 H   0  0  0  0  0  0  0  0  0  0  0  0
   -6.1548   -1.4782    0.0000 H   0  0  0  0  0  0  0  0  0  0  0  0
   -6.9282    0.8000    0.0000 C   0  0  0  0  0  0  0  0  0  0  0  0
   -8.3138    1.6000    0.0000 H   0  0  0  0  0  0  0  0  0  0  0  0
   -8.3138    0.0000    0.0000 H   0  0  0  0  0  0  0  0  0  0  0  0
   -6.9282    2.4000    0.0000 H   0  0  0  0  0  0  0  0  0  0  0  0
  1  2  1  0  0  0  0
  1  3  1  0  0  0  0
  1  4  2  0  0  0  0
  4  5  1  0  0  0  0
  4  6  1  0  0  0  0
  6  7  1  0  0  0  0
  6  8  1  0  0  0  0
  6  9  1  0  0  0  0
  9 10  1  0  0  0  0
  9 11  1  0  0  0  0
  9 12  1  0  0  0  0
 12 13  1  0  0  0  0
 12 14  1  0  0  0  0
 12 15  1  0  0  0  0
 15 16  1  0  0  0  0
 15 17  1  0  0  0  0
 15 18  1  0  0  0  0
 18 19  1  0  0  0  0
 18 20  1  0  0  0  0
 18 21  1  0  0  0  0
 21 22  1  0  0  0  0
 21 23  1  0  0  0  0
 21 24  1  0  0  0  0
 24 25  1  0  0  0  0
 24 26  1  0  0  0  0
 24 27  1  0  0  0  0
 27 28  1  0  0  0  0
 27 29  1  0  0  0  0
 27 30  1  0  0  0  0
 30 31  1  0  0  0  0
 30 32  1  0  0  0  0
 30 33  1  0  0  0  0
 33 34  1  0  0  0  0
 33 35  1  0  0  0  0
 33 36  1  0  0  0  0
 36 37  1  0  0  0  0
 36 38  1  0  0  0  0
 36 39  1  0  0  0  0
M  END
> <ChemID>
104326

> <source_casrn>
2437-56-1

> <CAS>
2437-56-1

> <SMILES>
CCCCCCCCCCCC=C

> <NAME>
1-TRIDECENE

> <preferred_name>
1-Tridecene

> <iupac>
tridec-1-ene

> <MPID>
23235

> <dsstox_substance_id>
DTXSID3029235

> <Canonical_QSARr>
CCCCCCCCCCCC=C

> <InChI_Code_QSARr>
InChI=1S/C13H26/c1-3-5-7-9-11-13-12-10-8-6-4-2/h3H,1,4-13H2,2H3

> <InChI Key_QSARr>
VQOXUMQBYILCKR-UHFFFAOYSA-N

> <Salt_Solvent>
?

> <BP>
232.8

$$$$
104332
  -INDIGO-08031720192D

 20 21  0  0  0  0  0  0  0  0999 V2000
   -1.3857    2.4000    0.0000 O   0  0  0  0  0  0  0  0  0  0  0  0
    0.0001    1.6000    0.0000 C   0  0  0  0  0  0  0  0  0  0  0  0
    0.0001    0.0000    0.0000 C   0  0  0  0  0  0  0  0  0  0  0  0
    1.3857   -0.8000    0.0000 C   0  0  0  0  0  0  0  0  0  0  0  0
    1.3857   -2.4000    0.0000 H   0  0  0  0  0  0  0  0  0  0  0  0
    2.7713    0.0000    0.0000 C   0  0  0  0  0  0  0  0  0  0  0  0
    4.1569   -0.8000    0.0000 H   0  0  0  0  0  0  0  0  0  0  0  0
    2.7713    1.6000    0.0000 C   0  0  0  0  0  0  0  0  0  0  0  0
    4.1569    2.4000    0.0000 H   0  0  0  0  0  0  0  0  0  0  0  0
    1.3857    2.4000    0.0000 C   0  0  0  0  0  0  0  0  0  0  0  0
    1.3857    4.0000    0.0000 H   0  0  0  0  0  0  0  0  0  0  0  0
   -1.3857   -0.8000    0.0000 C   0  0  0  0  0  0  0  0  0  0  0  0
   -1.3857   -2.4000    0.0000 H   0  0  0  0  0  0  0  0  0  0  0  0
   -2.7713    0.0000    0.0000 C   0  0  0  0  0  0  0  0  0  0  0  0
   -4.1569   -0.8000    0.0000 C   0  0  0  0  0  0  0  0  0  0  0  0
   -5.5426   -1.6000    0.0000 H   0  0  0  0  0  0  0  0  0  0  0  0
   -5.5426    0.0000    0.0000 H   0  0  0  0  0  0  0  0  0  0  0  0
   -4.1569   -2.4000    0.0000 H   0  0  0  0  0  0  0  0  0  0  0  0
   -2.7713    1.6000    0.0000 C   0  0  0  0  0  0  0  0  0  0  0  0
   -4.1569    2.4000    0.0000 O   0  0  0  0  0  0  0  0  0  0  0  0
  1  2  1  0  0  0  0
  2  3  1  0  0  0  0
  3  4  2  0  0  0  0
  4  5  1  0  0  0  0
  4  6  1  0  0  0  0
  6  7  1  0  0  0  0
  6  8  2  0  0  0  0
  8  9  1  0  0  0  0
  8 10  1  0  0  0  0
 10  2  2  0  0  0  0
 10 11  1  0  0  0  0
  3 12  1  0  0  0  0
 12 13  1  0  0  0  0
 12 14  2  0  0  0  0
 14 15  1  0  0  0  0
 15 16  1  0  0  0  0
 15 17  1  0  0  0  0
 15 18  1  0  0  0  0
 14 19  1  0  0  0  0
 19  1  1  0  0  0  0
 19 20  2  0  0  0  0
M  END
> <ChemID>
104332

> <source_casrn>
2445-82-1

> <CAS>
NOCAS_870978

> <SMILES>
CC1=Cc2ccccc2OC1=O

> <NAME>
2H-1-BENZOPYRAN-2-ONE, 3-METHYL-

> <preferred_name>


> <iupac>


> <MPID>
23241

> <dsstox_substance_id>
DTXSID10870978

> <Canonical_QSARr>
CC1=Cc2ccccc2OC1=O

> <InChI_Code_QSARr>
InChI=1S/C10H8O2/c1-7-6-8-4-2-3-5-9(8)12-10(7)11/h2-6H,1H3

> <InChI Key_QSARr>
VIIIJFZJKFXOGG-UHFFFAOYSA-N

> <Salt_Solvent>
?

> <BP>
292.5

$$$$
104337
  -INDIGO-08031720192D

 46 45  0  0  0  0  0  0  0  0999 V2000
    5.5424    0.0000    0.0000 N   0  0  0  0  0  0  0  0  0  0  0  0
    5.5424   -1.6000    0.0000 H   0  0  0  0  0  0  0  0  0  0  0  0
    6.9281    0.8000    0.0000 C   0  0  0  0  0  0  0  0  0  0  0  0
    6.3161    2.2782    0.0000 H   0  0  0  0  0  0  0  0  0  0  0  0
    7.5404    2.2782    0.0000 H   0  0  0  0  0  0  0  0  0  0  0  0
    8.3137    0.0000    0.0000 C   0  0  0  0  0  0  0  0  0  0  0  0
    8.9260   -1.4782    0.0000 H   0  0  0  0  0  0  0  0  0  0  0  0
    7.7014   -1.4782    0.0000 H   0  0  0  0  0  0  0  0  0  0  0  0
    9.6994    0.8000    0.0000 C   0  0  0  0  0  0  0  0  0  0  0  0
    9.0871    2.2782    0.0000 H   0  0  0  0  0  0  0  0  0  0  0  0
   10.3117    2.2782    0.0000 H   0  0  0  0  0  0  0  0  0  0  0  0
   11.0850    0.0000    0.0000 C   0  0  0  0  0  0  0  0  0  0  0  0
   11.6974   -1.4782    0.0000 H   0  0  0  0  0  0  0  0  0  0  0  0
   10.4727   -1.4782    0.0000 H   0  0  0  0  0  0  0  0  0  0  0  0
   12.4707    0.8000    0.0000 C   0  0  0  0  0  0  0  0  0  0  0  0
   11.8584    2.2782    0.0000 H   0  0  0  0  0  0  0  0  0  0  0  0
   13.0830    2.2782    0.0000 H   0  0  0  0  0  0  0  0  0  0  0  0
   13.8564    0.0000    0.0000 C   0  0  0  0  0  0  0  0  0  0  0  0
   14.4687   -1.4782    0.0000 H   0  0  0  0  0  0  0  0  0  0  0  0
   13.2440   -1.4782    0.0000 H   0  0  0  0  0  0  0  0  0  0  0  0
   15.2420    0.8000    0.0000 C   0  0  0  0  0  0  0  0  0  0  0  0
   16.6277    1.6000    0.0000 H   0  0  0  0  0  0  0  0  0  0  0  0
   16.6277    0.0000    0.0000 H   0  0  0  0  0  0  0  0  0  0  0  0
   15.2420    2.4000    0.0000 H   0  0  0  0  0  0  0  0  0  0  0  0
    4.1571    0.8000    0.0000 C   0  0  0  0  0  0  0  0  0  0  0  0
    3.5448    2.2782    0.0000 H   0  0  0  0  0  0  0  0  0  0  0  0
    4.7690    2.2782    0.0000 H   0  0  0  0  0  0  0  0  0  0  0  0
    2.7714    0.0000    0.0000 C   0  0  0  0  0  0  0  0  0  0  0  0
    3.3837   -1.4782    0.0000 H   0  0  0  0  0  0  0  0  0  0  0  0
    2.1591   -1.4782    0.0000 H   0  0  0  0  0  0  0  0  0  0  0  0
    1.3857    0.8000    0.0000 C   0  0  0  0  0  0  0  0  0  0  0  0
    0.7734    2.2782    0.0000 H   0  0  0  0  0  0  0  0  0  0  0  0
    1.9981    2.2782    0.0000 H   0  0  0  0  0  0  0  0  0  0  0  0
    0.0001    0.0000    0.0000 C   0  0  0  0  0  0  0  0  0  0  0  0
    0.6124   -1.4782    0.0000 H   0  0  0  0  0  0  0  0  0  0  0  0
   -0.6122   -1.4782    0.0000 H   0  0  0  0  0  0  0  0  0  0  0  0
   -1.3856    0.8000    0.0000 C   0  0  0  0  0  0  0  0  0  0  0  0
   -1.9979    2.2782    0.0000 H   0  0  0  0  0  0  0  0  0  0  0  0
   -0.7733    2.2782    0.0000 H   0  0  0  0  0  0  0  0  0  0  0  0
   -2.7712    0.0000    0.0000 C   0  0  0  0  0  0  0  0  0  0  0  0
   -2.1589   -1.4782    0.0000 H   0  0  0  0  0  0  0  0  0  0  0  0
   -3.3836   -1.4782    0.0000 H   0  0  0  0  0  0  0  0  0  0  0  0
   -4.1569    0.8000    0.0000 C   0  0  0  0  0  0  0  0  0  0  0  0
   -5.5426    1.6000    0.0000 H   0  0  0  0  0  0  0  0  0  0  0  0
   -5.5426    0.0000    0.0000 H   0  0  0  0  0  0  0  0  0  0  0  0
   -4.1569    2.4000    0.0000 H   0  0  0  0  0  0  0  0  0  0  0  0
  1  2  1  0  0  0  0
  1  3  1  0  0  0  0
  3  4  1  0  0  0  0
  3  5  1  0  0  0  0
  3  6  1  0  0  0  0
  6  7  1  0  0  0  0
  6  8  1  0  0  0  0
  6  9  1  0  0  0  0
  9 10  1  0  0  0  0
  9 11  1  0  0  0  0
  9 12  1  0  0  0  0
 12 13  1  0  0  0  0
 12 14  1  0  0  0  0
 12 15  1  0  0  0  0
 15 16  1  0  0  0  0
 15 17  1  0  0  0  0
 15 18  1  0  0  0  0
 18 19  1  0  0  0  0
 18 20  1  0  0  0  0
 18 21  1  0  0  0  0
 21 22  1  0  0  0  0
 21 23  1  0  0  0  0
 21 24  1  0  0  0  0
  1 25  1  0  0  0  0
 25 26  1  0  0  0  0
 25 27  1  0  0  0  0
 25 28  1  0  0  0  0
 28 29  1  0  0  0  0
 28 30  1  0  0  0  0
 28 31  1  0  0  0  0
 31 32  1  0  0  0  0
 31 33  1  0  0  0  0
 31 34  1  0  0  0  0
 34 35  1  0  0  0  0
 34 36  1  0  0  0  0
 34 37  1  0  0  0  0
 37 38  1  0  0  0  0
 37 39  1  0  0  0  0
 37 40  1  0  0  0  0
 40 41  1  0  0  0  0
 40 42  1  0  0  0  0
 40 43  1  0  0  0  0
 43 44  1  0  0  0  0
 43 45  1  0  0  0  0
 43 46  1  0  0  0  0
M  END
> <ChemID>
104337

> <source_casrn>
2470-68-0

> <CAS>
2470-68-0

> <SMILES>
CCCCCCCNCCCCCCC

> <NAME>
1-Heptanamine, N-heptyl-

> <preferred_name>
1-Heptanamine, N-heptyl-

> <iupac>
N-heptylheptan-1-amine

> <MPID>
23245

> <dsstox_substance_id>
DTXSID8062444

> <Canonical_QSARr>
CCCCCCCNCCCCCCC

> <InChI_Code_QSARr>
InChI=1S/C14H31N/c1-3-5-7-9-11-13-15-14-12-10-8-6-4-2/h15H,3-14H2,1-2H3

> <InChI Key_QSARr>
NJWMENBYMFZACG-UHFFFAOYSA-N

> <Salt_Solvent>
?

> <BP>
271.0

$$$$
104341
  -INDIGO-08031720192D

 14 14  0  0  0  0  0  0  0  0999 V2000
   -4.0000    1.3856    0.0000 O   0  0  0  0  0  0  0  0  0  0  0  0
   -2.4000    1.3856    0.0000 C   0  0  0  0  0  0  0  0  0  0  0  0
   -0.8000    1.3856    0.0000 N   0  0  0  0  0  0  0  0  0  0  0  0
   -0.0001   -0.0000    0.0000 C   0  0  0  0  0  0  0  0  0  0  0  0
   -0.8000   -1.3857    0.0000 C   0  0  0  0  0  0  0  0  0  0  0  0
   -2.4000   -1.3857    0.0000 H   0  0  0  0  0  0  0  0  0  0  0  0
   -0.0001   -2.7713    0.0000 C   0  0  0  0  0  0  0  0  0  0  0  0
   -0.8000   -4.1569    0.0000 H   0  0  0  0  0  0  0  0  0  0  0  0
    1.6001   -2.7713    0.0000 C   0  0  0  0  0  0  0  0  0  0  0  0
    2.4000   -4.1569    0.0000 Br  0  0  0  0  0  0  0  0  0  0  0  0
    2.4000   -1.3856    0.0000 C   0  0  0  0  0  0  0  0  0  0  0  0
    4.0000   -1.3856    0.0000 H   0  0  0  0  0  0  0  0  0  0  0  0
    1.6001   -0.0000    0.0000 C   0  0  0  0  0  0  0  0  0  0  0  0
    2.4000    1.3856    0.0000 H   0  0  0  0  0  0  0  0  0  0  0  0
  1  2  2  0  0  0  0
  2  3  2  0  0  0  0
  3  4  1  0  0  0  0
  4  5  1  0  0  0  0
  5  6  1  0  0  0  0
  5  7  2  0  0  0  0
  7  8  1  0  0  0  0
  7  9  1  0  0  0  0
  9 10  1  0  0  0  0
  9 11  2  0  0  0  0
 11 12  1  0  0  0  0
 11 13  1  0  0  0  0
 13  4  2  0  0  0  0
 13 14  1  0  0  0  0
M  END
> <ChemID>
104341

> <source_casrn>
2493-02-9

> <CAS>
2493-02-9

> <SMILES>
O=C=Nc1ccc(Br)cc1

> <NAME>
Benzene, 1-bromo-4-isocyanato-

> <preferred_name>
p-Bromophenyl isocyanate

> <iupac>
1-Bromo-4-isocyanatobenzene

> <MPID>
23249

> <dsstox_substance_id>
DTXSID1062465

> <Canonical_QSARr>
O=C=Nc1ccc(Br)cc1

> <InChI_Code_QSARr>
InChI=1S/C7H4BrNO/c8-6-1-3-7(4-2-6)9-5-10/h1-4H

> <InChI Key_QSARr>
CZQIJQFTRGDODI-UHFFFAOYSA-N

> <Salt_Solvent>
?

> <BP>
226.0

$$$$
104346
  -INDIGO-08031720192D

 14 14  0  0  0  0  0  0  0  0999 V2000
    1.5035   -0.5472    0.0000 N   0  0  0  0  0  0  0  0  0  0  0  0
    2.7292    0.4812    0.0000 H   0  0  0  0  0  0  0  0  0  0  0  0
    1.7813   -2.1229    0.0000 H   0  0  0  0  0  0  0  0  0  0  0  0
   -0.0000    0.0000    0.0000 C   0  0  0  0  0  0  0  0  0  0  0  0
    0.8000    1.3856    0.0000 H   0  0  0  0  0  0  0  0  0  0  0  0
   -0.8000   -1.3857    0.0000 C   0  0  0  0  0  0  0  0  0  0  0  0
    0.5857   -2.1856    0.0000 H   0  0  0  0  0  0  0  0  0  0  0  0
   -1.6000   -2.7713    0.0000 H   0  0  0  0  0  0  0  0  0  0  0  0
   -2.1856   -0.5857    0.0000 C   0  0  0  0  0  0  0  0  0  0  0  0
   -2.9856   -1.9713    0.0000 H   0  0  0  0  0  0  0  0  0  0  0  0
   -3.5713    0.2144    0.0000 H   0  0  0  0  0  0  0  0  0  0  0  0
   -1.3857    0.8000    0.0000 C   0  0  0  0  0  0  0  0  0  0  0  0
   -2.7713    1.6000    0.0000 H   0  0  0  0  0  0  0  0  0  0  0  0
   -0.5856    2.1856    0.0000 H   0  0  0  0  0  0  0  0  0  0  0  0
  1  2  1  0  0  0  0
  1  3  1  0  0  0  0
  1  4  1  0  0  0  0
  4  5  1  0  0  0  0
  4  6  1  0  0  0  0
  6  7  1  0  0  0  0
  6  8  1  0  0  0  0
  6  9  1  0  0  0  0
  9 10  1  0  0  0  0
  9 11  1  0  0  0  0
  9 12  1  0  0  0  0
 12  4  1  0  0  0  0
 12 13  1  0  0  0  0
 12 14  1  0  0  0  0
M  END
> <ChemID>
104346

> <source_casrn>
2516-34-9

> <CAS>
NOCAS_870982

> <SMILES>
NC1CCC1

> <NAME>
Cyclobutylamine

> <preferred_name>


> <iupac>


> <MPID>
23253

> <dsstox_substance_id>
DTXSID00870982

> <Canonical_QSARr>
NC1CCC1

> <InChI_Code_QSARr>
InChI=1S/C4H9N/c5-4-2-1-3-4/h4H,1-3,5H2

> <InChI Key_QSARr>
KZZKOVLJUKWSKX-UHFFFAOYSA-N

> <Salt_Solvent>
?

> <BP>
82.0

$$$$
104350
  -INDIGO-08031720192D

 19 18  0  0  0  0  0  0  0  0999 V2000
   -1.3856    0.8000    0.0000 C   0  0  0  0  0  0  0  0  0  0  0  0
   -1.3856    2.4000    0.0000 O   0  0  0  0  0  0  0  0  0  0  0  0
   -2.7713    0.0000    0.0000 O   0  0  0  0  0  0  0  0  0  0  0  0
   -4.1570    0.8000    0.0000 C   0  0  0  0  0  0  0  0  0  0  0  0
   -4.7693    2.2782    0.0000 H   0  0  0  0  0  0  0  0  0  0  0  0
   -3.5447    2.2782    0.0000 H   0  0  0  0  0  0  0  0  0  0  0  0
   -5.5426    0.0000    0.0000 C   0  0  0  0  0  0  0  0  0  0  0  0
   -6.9282   -0.8000    0.0000 H   0  0  0  0  0  0  0  0  0  0  0  0
   -6.9282    0.8000    0.0000 H   0  0  0  0  0  0  0  0  0  0  0  0
   -5.5426   -1.6000    0.0000 H   0  0  0  0  0  0  0  0  0  0  0  0
    0.0000    0.0000    0.0000 C   0  0  0  0  0  0  0  0  0  0  0  0
   -0.8001   -1.3856    0.0000 H   0  0  0  0  0  0  0  0  0  0  0  0
    1.3857   -0.8000    0.0000 C   0  0  0  0  0  0  0  0  0  0  0  0
    2.7713   -1.6000    0.0000 H   0  0  0  0  0  0  0  0  0  0  0  0
    1.3857   -2.4000    0.0000 H   0  0  0  0  0  0  0  0  0  0  0  0
    2.7713    0.0000    0.0000 H   0  0  0  0  0  0  0  0  0  0  0  0
    0.8000    1.3856    0.0000 N   0  0  0  0  0  0  0  0  0  0  0  0
    0.0000    2.7713    0.0000 O   0  0  0  0  0  0  0  0  0  0  0  0
    2.3999    1.3856    0.0000 O   0  0  0  0  0  0  0  0  0  0  0  0
  1  2  2  0  0  0  0
  1  3  1  0  0  0  0
  3  4  1  0  0  0  0
  4  5  1  0  0  0  0
  4  6  1  0  0  0  0
  4  7  1  0  0  0  0
  7  8  1  0  0  0  0
  7  9  1  0  0  0  0
  7 10  1  0  0  0  0
  1 11  1  0  0  0  0
 11 12  1  0  0  0  0
 11 13  1  0  0  0  0
 13 14  1  0  0  0  0
 13 15  1  0  0  0  0
 13 16  1  0  0  0  0
 11 17  1  0  0  0  0
 17 18  1  0  0  0  0
 17 19  2  0  0  0  0
M  CHG  2  17   1  18  -1
M  END
> <ChemID>
104350

> <source_casrn>
2531-80-8

> <CAS>
NOCAS_870983

> <SMILES>
CCOC(=O)C(C)[N+]([O-])=O

> <NAME>
Propanoic acid, 2-nitro-, ethyl ester

> <preferred_name>


> <iupac>


> <MPID>
23257

> <dsstox_substance_id>
DTXSID60870983

> <Canonical_QSARr>
CCOC(=O)C(C)[N+]([O-])=O

> <InChI_Code_QSARr>
InChI=1S/C5H9NO4/c1-3-10-5(7)4(2)6(8)9/h4H,3H2,1-2H3

> <InChI Key_QSARr>
ZXBGJDZWJJFFQY-UHFFFAOYSA-N

> <Salt_Solvent>
?

> <BP>
190.5

$$$$
104355
  -INDIGO-08031720192D

 23 23  0  0  0  0  0  0  0  0999 V2000
    4.1569   -0.8000    0.0000 C   0  0  0  0  0  0  0  0  0  0  0  0
    5.5426   -1.6000    0.0000 H   0  0  0  0  0  0  0  0  0  0  0  0
    5.5426   -0.0000    0.0000 H   0  0  0  0  0  0  0  0  0  0  0  0
    4.1569   -2.4000    0.0000 H   0  0  0  0  0  0  0  0  0  0  0  0
    2.7712   -0.0000    0.0000 C   0  0  0  0  0  0  0  0  0  0  0  0
    1.3856   -0.8000    0.0000 C   0  0  0  0  0  0  0  0  0  0  0  0
    1.9979   -2.2782    0.0000 H   0  0  0  0  0  0  0  0  0  0  0  0
    0.7734   -2.2782    0.0000 H   0  0  0  0  0  0  0  0  0  0  0  0
    0.0001   -0.0000    0.0000 C   0  0  0  0  0  0  0  0  0  0  0  0
   -0.6122    1.4782    0.0000 H   0  0  0  0  0  0  0  0  0  0  0  0
    0.6122    1.4782    0.0000 H   0  0  0  0  0  0  0  0  0  0  0  0
   -1.3856   -0.8000    0.0000 C   0  0  0  0  0  0  0  0  0  0  0  0
   -2.7712   -0.0000    0.0000 C   0  0  0  0  0  0  0  0  0  0  0  0
   -2.7712    1.6000    0.0000 H   0  0  0  0  0  0  0  0  0  0  0  0
   -4.1569   -0.8000    0.0000 C   0  0  0  0  0  0  0  0  0  0  0  0
   -5.5426   -0.0000    0.0000 H   0  0  0  0  0  0  0  0  0  0  0  0
   -4.1569   -2.4000    0.0000 C   0  0  0  0  0  0  0  0  0  0  0  0
   -5.5426   -3.2000    0.0000 H   0  0  0  0  0  0  0  0  0  0  0  0
   -2.7712   -3.2000    0.0000 C   0  0  0  0  0  0  0  0  0  0  0  0
   -2.7712   -4.8000    0.0000 H   0  0  0  0  0  0  0  0  0  0  0  0
   -1.3856   -2.4000    0.0000 C   0  0  0  0  0  0  0  0  0  0  0  0
    0.0001   -3.2000    0.0000 H   0  0  0  0  0  0  0  0  0  0  0  0
    2.7712    1.6000    0.0000 O   0  0  0  0  0  0  0  0  0  0  0  0
  1  2  1  0  0  0  0
  1  3  1  0  0  0  0
  1  4  1  0  0  0  0
  1  5  1  0  0  0  0
  5  6  1  0  0  0  0
  6  7  1  0  0  0  0
  6  8  1  0  0  0  0
  6  9  1  0  0  0  0
  9 10  1  0  0  0  0
  9 11  1  0  0  0  0
  9 12  1  0  0  0  0
 12 13  1  0  0  0  0
 13 14  1  0  0  0  0
 13 15  2  0  0  0  0
 15 16  1  0  0  0  0
 15 17  1  0  0  0  0
 17 18  1  0  0  0  0
 17 19  2  0  0  0  0
 19 20  1  0  0  0  0
 19 21  1  0  0  0  0
 21 12  2  0  0  0  0
 21 22  1  0  0  0  0
  5 23  2  0  0  0  0
M  END
> <ChemID>
104355

> <source_casrn>
2550-26-7

> <CAS>
2550-26-7

> <SMILES>
CC(=O)CCc1ccccc1

> <NAME>
2-Butanone, 4-phenyl-

> <preferred_name>
Benzylacetone

> <iupac>
4-phenylbutan-2-one

> <MPID>
23261

> <dsstox_substance_id>
DTXSID6033241

> <Canonical_QSARr>
CC(=O)CCc1ccccc1

> <InChI_Code_QSARr>
InChI=1S/C10H12O/c1-9(11)7-8-10-5-3-2-4-6-10/h2-6H,7-8H2,1H3

> <InChI Key_QSARr>
AKGGYBADQZYZPD-UHFFFAOYSA-N

> <Salt_Solvent>
?

> <BP>
233.5

$$$$
104359
  -INDIGO-08031720192D

 19 18  0  0  0  0  0  0  0  0999 V2000
    2.7292   -0.4813    0.0000 C   0  0  0  0  0  0  0  0  0  0  0  0
    3.0754   -2.0433    0.0000 H   0  0  0  0  0  0  0  0  0  0  0  0
    1.8695   -1.8306    0.0000 H   0  0  0  0  0  0  0  0  0  0  0  0
    1.5035    0.5472    0.0000 C   0  0  0  0  0  0  0  0  0  0  0  0
    1.1572    2.1093    0.0000 H   0  0  0  0  0  0  0  0  0  0  0  0
    2.3632    1.8967    0.0000 H   0  0  0  0  0  0  0  0  0  0  0  0
    0.0001    0.0000    0.0000 C   0  0  0  0  0  0  0  0  0  0  0  0
   -1.3857   -0.8000    0.0000 C   0  0  0  0  0  0  0  0  0  0  0  0
   -2.7713   -1.6000    0.0000 H   0  0  0  0  0  0  0  0  0  0  0  0
   -1.3857   -2.4000    0.0000 H   0  0  0  0  0  0  0  0  0  0  0  0
   -2.7713    0.0000    0.0000 H   0  0  0  0  0  0  0  0  0  0  0  0
    0.8000   -1.3856    0.0000 O   0  0  0  0  0  0  0  0  0  0  0  0
    0.0001   -2.7713    0.0000 H   0  0  0  0  0  0  0  0  0  0  0  0
   -0.8000    1.3856    0.0000 C   0  0  0  0  0  0  0  0  0  0  0  0
   -1.6000    2.7713    0.0000 H   0  0  0  0  0  0  0  0  0  0  0  0
    0.0001    2.7713    0.0000 H   0  0  0  0  0  0  0  0  0  0  0  0
   -2.4000    1.3856    0.0000 H   0  0  0  0  0  0  0  0  0  0  0  0
    4.2327    0.0660    0.0000 O   0  0  0  0  0  0  0  0  0  0  0  0
    5.4584   -0.9625    0.0000 H   0  0  0  0  0  0  0  0  0  0  0  0
  1  2  1  0  0  0  0
  1  3  1  0  0  0  0
  1  4  1  0  0  0  0
  4  5  1  0  0  0  0
  4  6  1  0  0  0  0
  4  7  1  0  0  0  0
  7  8  1  0  0  0  0
  8  9  1  0  0  0  0
  8 10  1  0  0  0  0
  8 11  1  0  0  0  0
  7 12  1  0  0  0  0
 12 13  1  0  0  0  0
  7 14  1  0  0  0  0
 14 15  1  0  0  0  0
 14 16  1  0  0  0  0
 14 17  1  0  0  0  0
  1 18  1  0  0  0  0
 18 19  1  0  0  0  0
M  END
> <ChemID>
104359

> <source_casrn>
2568-33-4

> <CAS>
2568-33-4

> <SMILES>
CC(C)(O)CCO

> <NAME>
2,4-Dihydroxy-2-methylbutane

> <preferred_name>
1,3-Butanediol, 3-methyl-

> <iupac>
3-methylbutane-1,3-diol

> <MPID>
23265

> <dsstox_substance_id>
DTXSID7075395

> <Canonical_QSARr>
CC(C)(O)CCO

> <InChI_Code_QSARr>
InChI=1S/C5H12O2/c1-5(2,7)3-4-6/h6-7H,3-4H2,1-2H3

> <InChI Key_QSARr>
XPFCZYUVICHKDS-UHFFFAOYSA-N

> <Salt_Solvent>
?

> <BP>
202.5

$$$$
104363
  -INDIGO-08031720192D

 30 31  0  0  0  0  0  0  0  0999 V2000
   -3.8790    2.3757    0.0000 O   0  0  0  0  0  0  0  0  0  0  0  0
   -4.1568    0.8000    0.0000 C   0  0  0  0  0  0  0  0  0  0  0  0
   -2.7713    0.0000    0.0000 C   0  0  0  0  0  0  0  0  0  0  0  0
   -1.3857    0.8000    0.0000 C   0  0  0  0  0  0  0  0  0  0  0  0
   -1.3857    2.4000    0.0000 H   0  0  0  0  0  0  0  0  0  0  0  0
   -0.0001    0.0000    0.0000 C   0  0  0  0  0  0  0  0  0  0  0  0
    1.3857    0.8000    0.0000 C   0  0  0  0  0  0  0  0  0  0  0  0
    2.7713    1.6000    0.0000 H   0  0  0  0  0  0  0  0  0  0  0  0
    1.3857    2.4000    0.0000 H   0  0  0  0  0  0  0  0  0  0  0  0
    2.7713    0.0000    0.0000 H   0  0  0  0  0  0  0  0  0  0  0  0
   -0.0001   -1.6000    0.0000 C   0  0  0  0  0  0  0  0  0  0  0  0
    1.3857   -2.4000    0.0000 C   0  0  0  0  0  0  0  0  0  0  0  0
    2.7713   -3.2000    0.0000 H   0  0  0  0  0  0  0  0  0  0  0  0
    1.3857   -4.0000    0.0000 H   0  0  0  0  0  0  0  0  0  0  0  0
    2.7713   -1.6000    0.0000 H   0  0  0  0  0  0  0  0  0  0  0  0
   -1.3857   -2.4000    0.0000 C   0  0  0  0  0  0  0  0  0  0  0  0
   -1.3857   -4.0000    0.0000 H   0  0  0  0  0  0  0  0  0  0  0  0
   -2.7713   -1.6000    0.0000 C   0  0  0  0  0  0  0  0  0  0  0  0
   -4.1568   -2.4000    0.0000 H   0  0  0  0  0  0  0  0  0  0  0  0
   -5.7326    0.5222    0.0000 C   0  0  0  0  0  0  0  0  0  0  0  0
   -6.2799   -0.9813    0.0000 C   0  0  0  0  0  0  0  0  0  0  0  0
   -5.2513   -2.2071    0.0000 H   0  0  0  0  0  0  0  0  0  0  0  0
   -7.8555   -1.2591    0.0000 C   0  0  0  0  0  0  0  0  0  0  0  0
   -8.4028   -2.7627    0.0000 H   0  0  0  0  0  0  0  0  0  0  0  0
   -8.8839   -0.0335    0.0000 C   0  0  0  0  0  0  0  0  0  0  0  0
  -10.4597   -0.3113    0.0000 H   0  0  0  0  0  0  0  0  0  0  0  0
   -8.3368    1.4700    0.0000 C   0  0  0  0  0  0  0  0  0  0  0  0
   -9.3652    2.6957    0.0000 H   0  0  0  0  0  0  0  0  0  0  0  0
   -6.7610    1.7479    0.0000 C   0  0  0  0  0  0  0  0  0  0  0  0
   -6.2139    3.2513    0.0000 H   0  0  0  0  0  0  0  0  0  0  0  0
  1  2  2  0  0  0  0
  2  3  1  0  0  0  0
  3  4  1  0  0  0  0
  4  5  1  0  0  0  0
  4  6  2  0  0  0  0
  6  7  1  0  0  0  0
  7  8  1  0  0  0  0
  7  9  1  0  0  0  0
  7 10  1  0  0  0  0
  6 11  1  0  0  0  0
 11 12  1  0  0  0  0
 12 13  1  0  0  0  0
 12 14  1  0  0  0  0
 12 15  1  0  0  0  0
 11 16  2  0  0  0  0
 16 17  1  0  0  0  0
 16 18  1  0  0  0  0
 18  3  2  0  0  0  0
 18 19  1  0  0  0  0
  2 20  1  0  0  0  0
 20 21  1  0  0  0  0
 21 22  1  0  0  0  0
 21 23  2  0  0  0  0
 23 24  1  0  0  0  0
 23 25  1  0  0  0  0
 25 26  1  0  0  0  0
 25 27  2  0  0  0  0
 27 28  1  0  0  0  0
 27 29  1  0  0  0  0
 29 20  2  0  0  0  0
 29 30  1  0  0  0  0
M  END
> <ChemID>
104363

> <source_casrn>
2571-39-3

> <CAS>
2571-39-3

> <SMILES>
Cc1ccc(cc1C)C(=O)c1ccccc1

> <NAME>
3,4-Dimethylphenyl phenyl ketone

> <preferred_name>
3,4-Dimethylbenzophenone

> <iupac>
(3,4-dimethylphenyl)-phenylmethanone

> <MPID>
23269

> <dsstox_substance_id>
DTXSID90180401

> <Canonical_QSARr>
Cc1ccc(cc1C)C(=O)c1ccccc1

> <InChI_Code_QSARr>
InChI=1S/C15H14O/c1-11-8-9-14(10-12(11)2)15(16)13-6-4-3-5-7-13/h3-10H,1-2H3

> <InChI Key_QSARr>
JENOLWCGNVWTJN-UHFFFAOYSA-N

> <Salt_Solvent>
?

> <BP>
341.0

$$$$
104367
  -INDIGO-08031720192D

 17 17  0  0  0  0  0  0  0  0999 V2000
   -6.8393    3.3690    0.0000 Cl  0  0  0  0  0  0  0  0  0  0  0  0
   -6.6721    1.7778    0.0000 C   0  0  0  0  0  0  0  0  0  0  0  0
   -5.2103    1.1270    0.0000 C   0  0  0  0  0  0  0  0  0  0  0  0
   -4.8777   -0.4380    0.0000 N   0  0  0  0  0  0  0  0  0  0  0  0
   -3.2865   -0.6053    0.0000 S   0  0  0  0  0  0  0  0  0  0  0  0
   -2.6356    0.8564    0.0000 C   0  0  0  0  0  0  0  0  0  0  0  0
   -1.0707    1.1890    0.0000 O   0  0  0  0  0  0  0  0  0  0  0  0
    0.0001    0.0000    0.0000 C   0  0  0  0  0  0  0  0  0  0  0  0
    0.1256   -1.5951    0.0000 H   0  0  0  0  0  0  0  0  0  0  0  0
   -1.0391   -1.2166    0.0000 H   0  0  0  0  0  0  0  0  0  0  0  0
    1.5650    0.3327    0.0000 C   0  0  0  0  0  0  0  0  0  0  0  0
    3.1301    0.6653    0.0000 H   0  0  0  0  0  0  0  0  0  0  0  0
    2.6356   -0.8564    0.0000 H   0  0  0  0  0  0  0  0  0  0  0  0
    2.0595    1.8544    0.0000 H   0  0  0  0  0  0  0  0  0  0  0  0
   -3.8246    1.9270    0.0000 N   0  0  0  0  0  0  0  0  0  0  0  0
   -8.1337    2.4285    0.0000 Cl  0  0  0  0  0  0  0  0  0  0  0  0
   -7.9664    0.8373    0.0000 Cl  0  0  0  0  0  0  0  0  0  0  0  0
  1  2  1  0  0  0  0
  2  3  1  0  0  0  0
  3  4  2  0  0  0  0
  4  5  1  0  0  0  0
  5  6  1  0  0  0  0
  6  7  1  0  0  0  0
  7  8  1  0  0  0  0
  8  9  1  0  0  0  0
  8 10  1  0  0  0  0
  8 11  1  0  0  0  0
 11 12  1  0  0  0  0
 11 13  1  0  0  0  0
 11 14  1  0  0  0  0
  6 15  2  0  0  0  0
 15  3  1  0  0  0  0
  2 16  1  0  0  0  0
  2 17  1  0  0  0  0
M  END
> <ChemID>
104367

> <source_casrn>
2593-15-9

> <CAS>
2593-15-9

> <SMILES>
CCOc1[n]c([n][s]1)C(Cl)(Cl)Cl

> <NAME>
ETRIDAZOLE

> <preferred_name>
Etridiazole

> <iupac>
5-ethoxy-3-(trichloromethyl)-1,2,4-thiadiazole

> <MPID>
23273

> <dsstox_substance_id>
DTXSID3032547

> <Canonical_QSARr>
CCOc1[n]c([n][s]1)C(Cl)(Cl)Cl

> <InChI_Code_QSARr>
InChI=1S/C5H5Cl3N2OS/c1-2-11-4-9-3(10-12-4)5(6,7)8/h2H2,1H3

> <InChI Key_QSARr>
KQTVWCSONPJJPE-UHFFFAOYSA-N

> <Salt_Solvent>
?

> <BP>
188.0

$$$$
104374
  -INDIGO-08031720192D

 24 24  0  0  0  0  0  0  0  0999 V2000
    0.0000    0.0000    0.0000 C   0  0  0  0  0  0  0  0  0  0  0  0
    1.5651    0.3327    0.0000 H   0  0  0  0  0  0  0  0  0  0  0  0
    0.4944   -1.5217    0.0000 C   0  0  0  0  0  0  0  0  0  0  0  0
    1.9561   -0.8709    0.0000 H   0  0  0  0  0  0  0  0  0  0  0  0
    1.7201   -2.5502    0.0000 C   0  0  0  0  0  0  0  0  0  0  0  0
    2.9457   -3.5786    0.0000 H   0  0  0  0  0  0  0  0  0  0  0  0
    3.2236   -2.0029    0.0000 H   0  0  0  0  0  0  0  0  0  0  0  0
    1.4422   -4.1258    0.0000 H   0  0  0  0  0  0  0  0  0  0  0  0
   -0.8000   -2.4621    0.0000 C   0  0  0  0  0  0  0  0  0  0  0  0
    0.2706   -3.6512    0.0000 H   0  0  0  0  0  0  0  0  0  0  0  0
   -1.8706   -3.6512    0.0000 H   0  0  0  0  0  0  0  0  0  0  0  0
   -2.0945   -1.5217    0.0000 C   0  0  0  0  0  0  0  0  0  0  0  0
   -2.8944   -2.9073    0.0000 H   0  0  0  0  0  0  0  0  0  0  0  0
   -3.6905   -1.4101    0.0000 C   0  0  0  0  0  0  0  0  0  0  0  0
   -5.2866   -1.2985    0.0000 H   0  0  0  0  0  0  0  0  0  0  0  0
   -4.5853   -2.7365    0.0000 H   0  0  0  0  0  0  0  0  0  0  0  0
   -4.3919    0.0280    0.0000 H   0  0  0  0  0  0  0  0  0  0  0  0
   -1.6000    0.0000    0.0000 C   0  0  0  0  0  0  0  0  0  0  0  0
   -3.1650    0.3327    0.0000 H   0  0  0  0  0  0  0  0  0  0  0  0
   -1.4327    1.5913    0.0000 H   0  0  0  0  0  0  0  0  0  0  0  0
    0.3871    1.5524    0.0000 C   0  0  0  0  0  0  0  0  0  0  0  0
    0.7741    3.1049    0.0000 H   0  0  0  0  0  0  0  0  0  0  0  0
    1.9252    1.9935    0.0000 H   0  0  0  0  0  0  0  0  0  0  0  0
   -0.7638    2.6639    0.0000 H   0  0  0  0  0  0  0  0  0  0  0  0
  1  2  1  0  0  0  0
  1  3  1  0  0  0  0
  3  4  1  0  0  0  0
  3  5  1  0  0  0  0
  5  6  1  0  0  0  0
  5  7  1  0  0  0  0
  5  8  1  0  0  0  0
  3  9  1  0  0  0  0
  9 10  1  0  0  0  0
  9 11  1  0  0  0  0
  9 12  1  0  0  0  0
 12 13  1  0  0  0  0
 12 14  1  0  0  0  0
 14 15  1  0  0  0  0
 14 16  1  0  0  0  0
 14 17  1  0  0  0  0
 12 18  1  0  0  0  0
 18  1  1  0  0  0  0
 18 19  1  0  0  0  0
 18 20  1  0  0  0  0
  1 21  1  0  0  0  0
 21 22  1  0  0  0  0
 21 23  1  0  0  0  0
 21 24  1  0  0  0  0
M  END
> <ChemID>
104374

> <source_casrn>
2613-72-1

> <CAS>
2815-58-9

> <SMILES>
CC1CC(C)C(C)C1

> <NAME>
1,2,4-Trimethylcyclopentane

> <preferred_name>


> <iupac>


> <MPID>
23279

> <dsstox_substance_id>
DTXSID00870987

> <Canonical_QSARr>
CC1CC(C)C(C)C1

> <InChI_Code_QSARr>
InChI=1S/C8H16/c1-6-4-7(2)8(3)5-6/h6-8H,4-5H2,1-3H3

> <InChI Key_QSARr>
PNUFYSGVPVMNRN-UHFFFAOYSA-N

> <Salt_Solvent>
?

> <BP>
116.8

$$$$
104379
  -INDIGO-08031720192D

 23 24  0  0  0  0  0  0  0  0999 V2000
   -2.4000   -1.3856    0.0000 N   0  0  0  0  0  0  0  0  0  0  0  0
   -0.8000   -1.3857    0.0000 C   0  0  0  0  0  0  0  0  0  0  0  0
   -0.0000    0.0000    0.0000 C   0  0  0  0  0  0  0  0  0  0  0  0
    1.6000    0.0000    0.0000 C   0  0  0  0  0  0  0  0  0  0  0  0
    2.4001   -1.3856    0.0000 C   0  0  0  0  0  0  0  0  0  0  0  0
    4.0000   -1.3856    0.0000 H   0  0  0  0  0  0  0  0  0  0  0  0
    1.6000   -2.7713    0.0000 C   0  0  0  0  0  0  0  0  0  0  0  0
    2.4001   -4.1569    0.0000 H   0  0  0  0  0  0  0  0  0  0  0  0
   -0.0000   -2.7713    0.0000 C   0  0  0  0  0  0  0  0  0  0  0  0
   -0.8000   -4.1570    0.0000 C   0  0  0  0  0  0  0  0  0  0  0  0
   -1.6000   -5.5426    0.0000 H   0  0  0  0  0  0  0  0  0  0  0  0
   -0.0000   -5.5426    0.0000 H   0  0  0  0  0  0  0  0  0  0  0  0
   -2.4000   -4.1570    0.0000 H   0  0  0  0  0  0  0  0  0  0  0  0
    2.4001    1.3857    0.0000 C   0  0  0  0  0  0  0  0  0  0  0  0
    3.2000    2.7713    0.0000 H   0  0  0  0  0  0  0  0  0  0  0  0
    4.0000    1.3857    0.0000 H   0  0  0  0  0  0  0  0  0  0  0  0
    1.6000    2.7713    0.0000 H   0  0  0  0  0  0  0  0  0  0  0  0
   -0.8000    1.3856    0.0000 C   0  0  0  0  0  0  0  0  0  0  0  0
   -0.0000    2.7713    0.0000 H   0  0  0  0  0  0  0  0  0  0  0  0
   -2.4000    1.3856    0.0000 C   0  0  0  0  0  0  0  0  0  0  0  0
   -3.2001    2.7713    0.0000 H   0  0  0  0  0  0  0  0  0  0  0  0
   -3.2001    0.0000    0.0000 C   0  0  0  0  0  0  0  0  0  0  0  0
   -4.8000    0.0000    0.0000 H   0  0  0  0  0  0  0  0  0  0  0  0
  1  2  1  0  0  0  0
  2  3  1  0  0  0  0
  3  4  2  0  0  0  0
  4  5  1  0  0  0  0
  5  6  1  0  0  0  0
  5  7  2  0  0  0  0
  7  8  1  0  0  0  0
  7  9  1  0  0  0  0
  9  2  2  0  0  0  0
  9 10  1  0  0  0  0
 10 11  1  0  0  0  0
 10 12  1  0  0  0  0
 10 13  1  0  0  0  0
  4 14  1  0  0  0  0
 14 15  1  0  0  0  0
 14 16  1  0  0  0  0
 14 17  1  0  0  0  0
  3 18  1  0  0  0  0
 18 19  1  0  0  0  0
 18 20  2  0  0  0  0
 20 21  1  0  0  0  0
 20 22  1  0  0  0  0
 22  1  2  0  0  0  0
 22 23  1  0  0  0  0
M  END
> <ChemID>
104379

> <source_casrn>
2623-50-9

> <CAS>
2623-50-9

> <SMILES>
Cc1ccc(C)c2ccc[n]c12

> <NAME>
QUINOLINE, 5,8-DIMETHYL-

> <preferred_name>
5,8-Dimethylquinoline

> <iupac>
5,8-DIMETHYLQUINOLINE

> <MPID>
23284

> <dsstox_substance_id>
DTXSID10180867

> <Canonical_QSARr>
Cc1ccc(C)c2ccc[n]c12

> <InChI_Code_QSARr>
InChI=1S/C11H11N/c1-8-5-6-9(2)11-10(8)4-3-7-12-11/h3-7H,1-2H3

> <InChI Key_QSARr>
VVLZEQKZPNOPNS-UHFFFAOYSA-N

> <Salt_Solvent>
?

> <BP>
266.0

$$$$
104383
  -INDIGO-08031720192D

 17 17  0  0  0  0  0  0  0  0999 V2000
    0.0001   -0.0000    0.0000 C   0  0  0  0  0  0  0  0  0  0  0  0
    0.0001   -1.6000    0.0000 C   0  0  0  0  0  0  0  0  0  0  0  0
    1.3856   -2.4000    0.0000 H   0  0  0  0  0  0  0  0  0  0  0  0
   -1.3856   -2.4000    0.0000 C   0  0  0  0  0  0  0  0  0  0  0  0
   -1.3856   -4.0000    0.0000 H   0  0  0  0  0  0  0  0  0  0  0  0
   -2.7712   -1.6000    0.0000 C   0  0  0  0  0  0  0  0  0  0  0  0
   -4.1569   -2.4000    0.0000 H   0  0  0  0  0  0  0  0  0  0  0  0
   -2.7712   -0.0000    0.0000 C   0  0  0  0  0  0  0  0  0  0  0  0
   -4.1569    0.8000    0.0000 H   0  0  0  0  0  0  0  0  0  0  0  0
   -1.3856    0.8000    0.0000 C   0  0  0  0  0  0  0  0  0  0  0  0
   -1.3856    2.4000    0.0000 H   0  0  0  0  0  0  0  0  0  0  0  0
    1.3856    0.8000    0.0000 C   0  0  0  0  0  0  0  0  0  0  0  0
    2.7713   -0.0000    0.0000 C   0  0  0  0  0  0  0  0  0  0  0  0
    4.1569   -0.8000    0.0000 H   0  0  0  0  0  0  0  0  0  0  0  0
    4.1569    0.8000    0.0000 Cl  0  0  0  0  0  0  0  0  0  0  0  0
    2.7713   -1.6000    0.0000 Cl  0  0  0  0  0  0  0  0  0  0  0  0
    1.3856    2.4000    0.0000 O   0  0  0  0  0  0  0  0  0  0  0  0
  1  2  1  0  0  0  0
  2  3  1  0  0  0  0
  2  4  2  0  0  0  0
  4  5  1  0  0  0  0
  4  6  1  0  0  0  0
  6  7  1  0  0  0  0
  6  8  2  0  0  0  0
  8  9  1  0  0  0  0
  8 10  1  0  0  0  0
 10  1  2  0  0  0  0
 10 11  1  0  0  0  0
  1 12  1  0  0  0  0
 12 13  1  0  0  0  0
 13 14  1  0  0  0  0
 13 15  1  0  0  0  0
 13 16  1  0  0  0  0
 12 17  2  0  0  0  0
M  END
> <ChemID>
104383

> <source_casrn>
2648-61-5

> <CAS>
2648-61-5

> <SMILES>
O=C(C(Cl)Cl)c1ccccc1

> <NAME>
Ethanone, 2,2-dichloro-1-phenyl-

> <preferred_name>
2,2-Dichloro-1-phenylethanone

> <iupac>
2,2-dichloro-1-phenylethanone

> <MPID>
23288

> <dsstox_substance_id>
DTXSID1051939

> <Canonical_QSARr>
O=C(C(Cl)Cl)c1ccccc1

> <InChI_Code_QSARr>
InChI=1S/C8H6Cl2O/c9-8(10)7(11)6-4-2-1-3-5-6/h1-5,8H

> <InChI Key_QSARr>
CERJZAHSUZVMCH-UHFFFAOYSA-N

> <Salt_Solvent>
?

> <BP>
249.0

$$$$
104387
  -INDIGO-08031720192D

 21 20  0  0  0  0  0  0  0  0999 V2000
    0.5472    1.5035    0.0000 C   0  0  0  0  0  0  0  0  0  0  0  0
    1.0944    3.0070    0.0000 H   0  0  0  0  0  0  0  0  0  0  0  0
   -0.4812    2.7292    0.0000 H   0  0  0  0  0  0  0  0  0  0  0  0
    2.1229    1.7813    0.0000 H   0  0  0  0  0  0  0  0  0  0  0  0
    0.0000    0.0000    0.0000 C   0  0  0  0  0  0  0  0  0  0  0  0
   -1.3857    0.8000    0.0000 H   0  0  0  0  0  0  0  0  0  0  0  0
   -0.8000   -1.3856    0.0000 C   0  0  0  0  0  0  0  0  0  0  0  0
    0.4693   -2.3597    0.0000 H   0  0  0  0  0  0  0  0  0  0  0  0
   -0.5911   -2.9719    0.0000 H   0  0  0  0  0  0  0  0  0  0  0  0
   -2.4000   -1.3856    0.0000 C   0  0  0  0  0  0  0  0  0  0  0  0
   -4.0000   -1.3856    0.0000 H   0  0  0  0  0  0  0  0  0  0  0  0
   -3.2000   -2.7713    0.0000 H   0  0  0  0  0  0  0  0  0  0  0  0
   -3.2000    0.0000    0.0000 H   0  0  0  0  0  0  0  0  0  0  0  0
    1.3856   -0.8000    0.0000 O   0  0  0  0  0  0  0  0  0  0  0  0
    2.9613   -0.5221    0.0000 C   0  0  0  0  0  0  0  0  0  0  0  0
    4.0422    0.6575    0.0000 H   0  0  0  0  0  0  0  0  0  0  0  0
    2.8915    1.0763    0.0000 H   0  0  0  0  0  0  0  0  0  0  0  0
    3.9898   -1.7478    0.0000 C   0  0  0  0  0  0  0  0  0  0  0  0
    5.0183   -2.9735    0.0000 H   0  0  0  0  0  0  0  0  0  0  0  0
    5.5655   -1.4700    0.0000 H   0  0  0  0  0  0  0  0  0  0  0  0
    3.4425   -3.2513    0.0000 H   0  0  0  0  0  0  0  0  0  0  0  0
  1  2  1  0  0  0  0
  1  3  1  0  0  0  0
  1  4  1  0  0  0  0
  1  5  1  0  0  0  0
  5  6  1  0  0  0  0
  5  7  1  0  0  0  0
  7  8  1  0  0  0  0
  7  9  1  0  0  0  0
  7 10  1  0  0  0  0
 10 11  1  0  0  0  0
 10 12  1  0  0  0  0
 10 13  1  0  0  0  0
  5 14  1  0  0  0  0
 14 15  1  0  0  0  0
 15 16  1  0  0  0  0
 15 17  1  0  0  0  0
 15 18  1  0  0  0  0
 18 19  1  0  0  0  0
 18 20  1  0  0  0  0
 18 21  1  0  0  0  0
M  END
> <ChemID>
104387

> <source_casrn>
2679-87-0

> <CAS>
NOCAS_863009

> <SMILES>
CC(CC)OCC

> <NAME>
Butane, 2-ethoxy-

> <preferred_name>


> <iupac>


> <MPID>
23292

> <dsstox_substance_id>
DTXSID30863009

> <Canonical_QSARr>
CC(CC)OCC

> <InChI_Code_QSARr>
InChI=1S/C6H14O/c1-4-6(3)7-5-2/h6H,4-5H2,1-3H3

> <InChI Key_QSARr>
VSCUCHUDCLERMY-UHFFFAOYSA-N

> <Salt_Solvent>
?

> <BP>
81.0

$$$$
104391
  -INDIGO-08031720192D

 18 18  0  0  0  0  0  0  0  0999 V2000
   -0.0000    2.7713    0.0000 Cl  0  0  0  0  0  0  0  0  0  0  0  0
    0.8000    1.3856    0.0000 C   0  0  0  0  0  0  0  0  0  0  0  0
    2.4001    1.3856    0.0000 C   0  0  0  0  0  0  0  0  0  0  0  0
    3.2000    2.7713    0.0000 H   0  0  0  0  0  0  0  0  0  0  0  0
    3.2000    0.0000    0.0000 C   0  0  0  0  0  0  0  0  0  0  0  0
    4.8000    0.0000    0.0000 H   0  0  0  0  0  0  0  0  0  0  0  0
    2.4001   -1.3856    0.0000 C   0  0  0  0  0  0  0  0  0  0  0  0
    3.2000   -2.7713    0.0000 H   0  0  0  0  0  0  0  0  0  0  0  0
    0.8000   -1.3856    0.0000 C   0  0  0  0  0  0  0  0  0  0  0  0
   -0.0000   -2.7713    0.0000 H   0  0  0  0  0  0  0  0  0  0  0  0
   -0.0000    0.0000    0.0000 C   0  0  0  0  0  0  0  0  0  0  0  0
   -1.6000    0.0000    0.0000 C   0  0  0  0  0  0  0  0  0  0  0  0
   -2.3999    1.3856    0.0000 H   0  0  0  0  0  0  0  0  0  0  0  0
   -2.3999   -1.3856    0.0000 C   0  0  0  0  0  0  0  0  0  0  0  0
   -4.0000   -1.3856    0.0000 C   0  0  0  0  0  0  0  0  0  0  0  0
   -5.6000   -1.3856    0.0000 N   0  0  0  0  0  0  0  0  0  0  0  0
   -1.6000   -2.7713    0.0000 C   0  0  0  0  0  0  0  0  0  0  0  0
   -0.8000   -4.1569    0.0000 N   0  0  0  0  0  0  0  0  0  0  0  0
  1  2  1  0  0  0  0
  2  3  1  0  0  0  0
  3  4  1  0  0  0  0
  3  5  2  0  0  0  0
  5  6  1  0  0  0  0
  5  7  1  0  0  0  0
  7  8  1  0  0  0  0
  7  9  2  0  0  0  0
  9 10  1  0  0  0  0
  9 11  1  0  0  0  0
 11  2  2  0  0  0  0
 11 12  1  0  0  0  0
 12 13  1  0  0  0  0
 12 14  2  0  0  0  0
 14 15  1  0  0  0  0
 15 16  3  0  0  0  0
 14 17  1  0  0  0  0
 17 18  3  0  0  0  0
M  END
> <ChemID>
104391

> <source_casrn>
2698-41-1

> <CAS>
2698-41-1

> <SMILES>
N#CC(=Cc1ccccc1Cl)C#N

> <NAME>
o-Chlorobenzylidenemalononitrile

> <preferred_name>
(2-Chlorobenzylidene)propanedinitrile

> <iupac>
(2-chlorobenzylidene)propanedinitrile

> <MPID>
23296

> <dsstox_substance_id>
DTXSID9020297

> <Canonical_QSARr>
N#CC(=Cc1ccccc1Cl)C#N

> <InChI_Code_QSARr>
InChI=1S/C10H5ClN2/c11-10-4-2-1-3-9(10)5-8(6-12)7-13/h1-5H

> <InChI Key_QSARr>
JJNZXLAFIPKXIG-UHFFFAOYSA-N

> <Salt_Solvent>
?

> <BP>
312.5

$$$$
104395
  -INDIGO-08031720192D

 19 18  0  0  0  0  0  0  0  0999 V2000
   -1.3857    2.4000    0.0000 O   0  0  0  0  0  0  0  0  0  0  0  0
    0.0000    1.6000    0.0000 C   0  0  0  0  0  0  0  0  0  0  0  0
    0.0000    0.0000    0.0000 C   0  0  0  0  0  0  0  0  0  0  0  0
    0.0000   -1.6000    0.0000 H   0  0  0  0  0  0  0  0  0  0  0  0
    1.6000    0.0000    0.0000 C   0  0  0  0  0  0  0  0  0  0  0  0
    2.8693    0.9740    0.0000 H   0  0  0  0  0  0  0  0  0  0  0  0
    1.8089    1.5863    0.0000 H   0  0  0  0  0  0  0  0  0  0  0  0
    2.4000   -1.3857    0.0000 C   0  0  0  0  0  0  0  0  0  0  0  0
    3.2000   -2.7713    0.0000 H   0  0  0  0  0  0  0  0  0  0  0  0
    4.0000   -1.3857    0.0000 H   0  0  0  0  0  0  0  0  0  0  0  0
    1.6000   -2.7713    0.0000 H   0  0  0  0  0  0  0  0  0  0  0  0
   -1.5756   -0.2778    0.0000 C   0  0  0  0  0  0  0  0  0  0  0  0
   -2.0568    1.2481    0.0000 H   0  0  0  0  0  0  0  0  0  0  0  0
   -2.9950    0.4609    0.0000 H   0  0  0  0  0  0  0  0  0  0  0  0
   -2.1229   -1.7813    0.0000 C   0  0  0  0  0  0  0  0  0  0  0  0
   -2.6701   -3.2849    0.0000 H   0  0  0  0  0  0  0  0  0  0  0  0
   -3.6986   -2.0592    0.0000 H   0  0  0  0  0  0  0  0  0  0  0  0
   -1.0945   -3.0070    0.0000 H   0  0  0  0  0  0  0  0  0  0  0  0
    1.2256    2.6285    0.0000 Cl  0  0  0  0  0  0  0  0  0  0  0  0
  1  2  2  0  0  0  0
  2  3  1  0  0  0  0
  3  4  1  0  0  0  0
  3  5  1  0  0  0  0
  5  6  1  0  0  0  0
  5  7  1  0  0  0  0
  5  8  1  0  0  0  0
  8  9  1  0  0  0  0
  8 10  1  0  0  0  0
  8 11  1  0  0  0  0
  3 12  1  0  0  0  0
 12 13  1  0  0  0  0
 12 14  1  0  0  0  0
 12 15  1  0  0  0  0
 15 16  1  0  0  0  0
 15 17  1  0  0  0  0
 15 18  1  0  0  0  0
  2 19  1  0  0  0  0
M  END
> <ChemID>
104395

> <source_casrn>
2736-40-5

> <CAS>
2736-40-5

> <SMILES>
CCC(CC)C(=O)Cl

> <NAME>
Butanoyl chloride, 2-ethyl-

> <preferred_name>
Butanoyl chloride, 2-ethyl-

> <iupac>
2-ethylbutanoyl chloride

> <MPID>
23300

> <dsstox_substance_id>
DTXSID2062616

> <Canonical_QSARr>
CCC(CC)C(=O)Cl

> <InChI_Code_QSARr>
InChI=1S/C6H11ClO/c1-3-5(4-2)6(7)8/h5H,3-4H2,1-2H3

> <InChI Key_QSARr>
SMUKODJVMQOSAB-UHFFFAOYSA-N

> <Salt_Solvent>
?

> <BP>
140.0

$$$$
104399
  -INDIGO-08031720192D

 27 28  0  0  0  0  0  0  0  0999 V2000
   -2.4001   -1.3857    0.0000 C   0  0  0  0  0  0  0  0  0  0  0  0
   -3.2001    0.0000    0.0000 C   0  0  0  0  0  0  0  0  0  0  0  0
   -2.4001    1.3856    0.0000 H   0  0  0  0  0  0  0  0  0  0  0  0
   -4.8000    0.0000    0.0000 C   0  0  0  0  0  0  0  0  0  0  0  0
   -5.6000    1.3856    0.0000 H   0  0  0  0  0  0  0  0  0  0  0  0
   -5.6000   -1.3856    0.0000 C   0  0  0  0  0  0  0  0  0  0  0  0
   -7.2000   -1.3856    0.0000 H   0  0  0  0  0  0  0  0  0  0  0  0
   -4.8000   -2.7713    0.0000 C   0  0  0  0  0  0  0  0  0  0  0  0
   -5.6000   -4.1569    0.0000 H   0  0  0  0  0  0  0  0  0  0  0  0
   -3.2001   -2.7713    0.0000 C   0  0  0  0  0  0  0  0  0  0  0  0
   -2.4001   -4.1570    0.0000 C   0  0  0  0  0  0  0  0  0  0  0  0
   -3.2001   -5.5426    0.0000 H   0  0  0  0  0  0  0  0  0  0  0  0
   -0.7999   -4.1570    0.0000 C   0  0  0  0  0  0  0  0  0  0  0  0
    0.0001   -5.5426    0.0000 H   0  0  0  0  0  0  0  0  0  0  0  0
    0.0001   -2.7713    0.0000 C   0  0  0  0  0  0  0  0  0  0  0  0
    1.6000   -2.7713    0.0000 H   0  0  0  0  0  0  0  0  0  0  0  0
   -0.7999   -1.3857    0.0000 C   0  0  0  0  0  0  0  0  0  0  0  0
    0.0001    0.0000    0.0000 C   0  0  0  0  0  0  0  0  0  0  0  0
   -1.2694    0.9740    0.0000 H   0  0  0  0  0  0  0  0  0  0  0  0
   -0.2088    1.5863    0.0000 H   0  0  0  0  0  0  0  0  0  0  0  0
    1.6000    0.0000    0.0000 C   0  0  0  0  0  0  0  0  0  0  0  0
    2.8693   -0.9740    0.0000 H   0  0  0  0  0  0  0  0  0  0  0  0
    1.8089   -1.5863    0.0000 H   0  0  0  0  0  0  0  0  0  0  0  0
    2.4000    1.3857    0.0000 C   0  0  0  0  0  0  0  0  0  0  0  0
    3.2000    2.7713    0.0000 H   0  0  0  0  0  0  0  0  0  0  0  0
    4.0000    1.3857    0.0000 H   0  0  0  0  0  0  0  0  0  0  0  0
    1.6000    2.7713    0.0000 H   0  0  0  0  0  0  0  0  0  0  0  0
  1  2  1  0  0  0  0
  2  3  1  0  0  0  0
  2  4  2  0  0  0  0
  4  5  1  0  0  0  0
  4  6  1  0  0  0  0
  6  7  1  0  0  0  0
  6  8  2  0  0  0  0
  8  9  1  0  0  0  0
  8 10  1  0  0  0  0
 10  1  1  0  0  0  0
 10 11  2  0  0  0  0
 11 12  1  0  0  0  0
 11 13  1  0  0  0  0
 13 14  1  0  0  0  0
 13 15  2  0  0  0  0
 15 16  1  0  0  0  0
 15 17  1  0  0  0  0
 17  1  2  0  0  0  0
 17 18  1  0  0  0  0
 18 19  1  0  0  0  0
 18 20  1  0  0  0  0
 18 21  1  0  0  0  0
 21 22  1  0  0  0  0
 21 23  1  0  0  0  0
 21 24  1  0  0  0  0
 24 25  1  0  0  0  0
 24 26  1  0  0  0  0
 24 27  1  0  0  0  0
M  END
> <ChemID>
104399

> <source_casrn>
2765-18-6

> <CAS>
NOCAS_871877

> <SMILES>
CCCc1cccc2ccccc21

> <NAME>
1-N-PROPYLNAPHTHALENE

> <preferred_name>


> <iupac>


> <MPID>
23304

> <dsstox_substance_id>
DTXSID40871877

> <Canonical_QSARr>
CCCc1cccc2ccccc21

> <InChI_Code_QSARr>
InChI=1S/C13H14/c1-2-6-11-8-5-9-12-7-3-4-10-13(11)12/h3-5,7-10H,2,6H2,1H3

> <InChI Key_QSARr>
HMAMGXMFMCAOPV-UHFFFAOYSA-N

> <Salt_Solvent>
?

> <BP>
274.5

$$$$
104404
  -INDIGO-08031720192D

 23 23  0  0  0  0  0  0  0  0999 V2000
    2.7712    1.6000    0.0000 C   0  0  0  0  0  0  0  0  0  0  0  0
    4.1569    2.4000    0.0000 O   0  0  0  0  0  0  0  0  0  0  0  0
    4.1569    4.0000    0.0000 H   0  0  0  0  0  0  0  0  0  0  0  0
    2.7712    0.0000    0.0000 C   0  0  0  0  0  0  0  0  0  0  0  0
    4.1569   -0.8000    0.0000 O   0  0  0  0  0  0  0  0  0  0  0  0
    5.5425    0.0000    0.0000 C   0  0  0  0  0  0  0  0  0  0  0  0
    6.9282   -0.8000    0.0000 H   0  0  0  0  0  0  0  0  0  0  0  0
    6.9282    0.8000    0.0000 H   0  0  0  0  0  0  0  0  0  0  0  0
    5.5425   -1.6000    0.0000 H   0  0  0  0  0  0  0  0  0  0  0  0
    1.3857   -0.8000    0.0000 C   0  0  0  0  0  0  0  0  0  0  0  0
    1.3857   -2.4000    0.0000 H   0  0  0  0  0  0  0  0  0  0  0  0
    0.0001    0.0000    0.0000 C   0  0  0  0  0  0  0  0  0  0  0  0
   -1.3856   -0.8000    0.0000 C   0  0  0  0  0  0  0  0  0  0  0  0
   -1.9979   -2.2782    0.0000 H   0  0  0  0  0  0  0  0  0  0  0  0
   -0.7733   -2.2782    0.0000 H   0  0  0  0  0  0  0  0  0  0  0  0
   -2.7713    0.0000    0.0000 C   0  0  0  0  0  0  0  0  0  0  0  0
   -4.1569   -0.8000    0.0000 H   0  0  0  0  0  0  0  0  0  0  0  0
   -4.1569    0.8000    0.0000 H   0  0  0  0  0  0  0  0  0  0  0  0
   -2.7713   -1.6000    0.0000 H   0  0  0  0  0  0  0  0  0  0  0  0
    0.0001    1.6000    0.0000 C   0  0  0  0  0  0  0  0  0  0  0  0
   -1.3856    2.4000    0.0000 H   0  0  0  0  0  0  0  0  0  0  0  0
    1.3857    2.4000    0.0000 C   0  0  0  0  0  0  0  0  0  0  0  0
    1.3857    4.0000    0.0000 H   0  0  0  0  0  0  0  0  0  0  0  0
  1  2  1  0  0  0  0
  2  3  1  0  0  0  0
  1  4  1  0  0  0  0
  4  5  1  0  0  0  0
  5  6  1  0  0  0  0
  6  7  1  0  0  0  0
  6  8  1  0  0  0  0
  6  9  1  0  0  0  0
  4 10  2  0  0  0  0
 10 11  1  0  0  0  0
 10 12  1  0  0  0  0
 12 13  1  0  0  0  0
 13 14  1  0  0  0  0
 13 15  1  0  0  0  0
 13 16  1  0  0  0  0
 16 17  1  0  0  0  0
 16 18  1  0  0  0  0
 16 19  1  0  0  0  0
 12 20  2  0  0  0  0
 20 21  1  0  0  0  0
 20 22  1  0  0  0  0
 22  1  2  0  0  0  0
 22 23  1  0  0  0  0
M  END
> <ChemID>
104404

> <source_casrn>
2785-89-9

> <CAS>
2785-89-9

> <SMILES>
CCc1cc(OC)c(O)cc1

> <NAME>
Phenol, 4-ethyl-2-methoxy-

> <preferred_name>
4-Ethyl-2-methoxyphenol

> <iupac>
4-ethyl-2-methoxyphenol

> <MPID>
23308

> <dsstox_substance_id>
DTXSID0047038

> <Canonical_QSARr>
CCc1cc(OC)c(O)cc1

> <InChI_Code_QSARr>
InChI=1S/C9H12O2/c1-3-7-4-5-8(10)9(6-7)11-2/h4-6,10H,3H2,1-2H3

> <InChI Key_QSARr>
CHWNEIVBYREQRF-UHFFFAOYSA-N

> <Salt_Solvent>
?

> <BP>
236.5

$$$$
104408
  -INDIGO-08031720192D

 22 22  0  0  0  0  0  0  0  0999 V2000
    2.4000    1.3856    0.0000 C   0  0  0  0  0  0  0  0  0  0  0  0
    3.2000    2.7713    0.0000 H   0  0  0  0  0  0  0  0  0  0  0  0
    0.8000    1.3856    0.0000 C   0  0  0  0  0  0  0  0  0  0  0  0
    0.2528    2.8891    0.0000 H   0  0  0  0  0  0  0  0  0  0  0  0
   -0.0001    0.0000    0.0000 C   0  0  0  0  0  0  0  0  0  0  0  0
   -1.2257   -1.0285    0.0000 H   0  0  0  0  0  0  0  0  0  0  0  0
   -1.3856    0.8000    0.0000 C   0  0  0  0  0  0  0  0  0  0  0  0
   -1.9979    2.2782    0.0000 H   0  0  0  0  0  0  0  0  0  0  0  0
   -0.7734    2.2782    0.0000 H   0  0  0  0  0  0  0  0  0  0  0  0
   -2.7713    0.0000    0.0000 C   0  0  0  0  0  0  0  0  0  0  0  0
   -4.1569   -0.8000    0.0000 H   0  0  0  0  0  0  0  0  0  0  0  0
   -4.1569    0.8000    0.0000 H   0  0  0  0  0  0  0  0  0  0  0  0
   -2.7713   -1.6000    0.0000 H   0  0  0  0  0  0  0  0  0  0  0  0
    0.8000   -1.3857    0.0000 C   0  0  0  0  0  0  0  0  0  0  0  0
   -0.7035   -1.9329    0.0000 H   0  0  0  0  0  0  0  0  0  0  0  0
    1.0779   -2.9613    0.0000 H   0  0  0  0  0  0  0  0  0  0  0  0
    2.4000   -1.3857    0.0000 C   0  0  0  0  0  0  0  0  0  0  0  0
    2.1222   -2.9613    0.0000 H   0  0  0  0  0  0  0  0  0  0  0  0
    3.9035   -1.9329    0.0000 H   0  0  0  0  0  0  0  0  0  0  0  0
    3.2000    0.0000    0.0000 C   0  0  0  0  0  0  0  0  0  0  0  0
    4.4257   -1.0285    0.0000 H   0  0  0  0  0  0  0  0  0  0  0  0
    4.4257    1.0284    0.0000 H   0  0  0  0  0  0  0  0  0  0  0  0
  1  2  1  0  0  0  0
  1  3  2  0  0  0  0
  3  4  1  0  0  0  0
  3  5  1  0  0  0  0
  5  6  1  0  0  0  0
  5  7  1  0  0  0  0
  7  8  1  0  0  0  0
  7  9  1  0  0  0  0
  7 10  1  0  0  0  0
 10 11  1  0  0  0  0
 10 12  1  0  0  0  0
 10 13  1  0  0  0  0
  5 14  1  0  0  0  0
 14 15  1  0  0  0  0
 14 16  1  0  0  0  0
 14 17  1  0  0  0  0
 17 18  1  0  0  0  0
 17 19  1  0  0  0  0
 17 20  1  0  0  0  0
 20  1  1  0  0  0  0
 20 21  1  0  0  0  0
 20 22  1  0  0  0  0
M  END
> <ChemID>
104408

> <source_casrn>
2808-71-1

> <CAS>
NOCAS_870995

> <SMILES>
CCC1CCCC=C1

> <NAME>
CYCLOHEXENE, 3-ETHYL-

> <preferred_name>


> <iupac>


> <MPID>
23312

> <dsstox_substance_id>
DTXSID30870995

> <Canonical_QSARr>
CCC1CCCC=C1

> <InChI_Code_QSARr>
InChI=1S/C8H14/c1-2-8-6-4-3-5-7-8/h4,6,8H,2-3,5,7H2,1H3

> <InChI Key_QSARr>
BAGSBIKCNLYDJO-UHFFFAOYSA-N

> <Salt_Solvent>
?

> <BP>
134.0

$$$$
104412
  -INDIGO-08031720192D

 12 11  0  0  0  0  0  0  0  0999 V2000
    0.0000   -0.0000    0.0000 C   0  0  0  0  0  0  0  0  0  0  0  0
    1.6000   -0.0000    0.0000 H   0  0  0  0  0  0  0  0  0  0  0  0
    0.8000    1.3856    0.0000 H   0  0  0  0  0  0  0  0  0  0  0  0
    0.8000   -1.3856    0.0000 H   0  0  0  0  0  0  0  0  0  0  0  0
   -1.6000   -0.0000    0.0000 C   0  0  0  0  0  0  0  0  0  0  0  0
   -3.1999   -0.0000    0.0000 C   0  0  0  0  0  0  0  0  0  0  0  0
   -4.8001   -0.0000    0.0000 C   0  0  0  0  0  0  0  0  0  0  0  0
   -6.4000    0.0000    0.0000 C   0  0  0  0  0  0  0  0  0  0  0  0
   -8.0000    0.0000    0.0000 C   0  0  0  0  0  0  0  0  0  0  0  0
   -9.6000    0.0000    0.0000 H   0  0  0  0  0  0  0  0  0  0  0  0
   -8.8000    1.3856    0.0000 H   0  0  0  0  0  0  0  0  0  0  0  0
   -8.8000   -1.3856    0.0000 H   0  0  0  0  0  0  0  0  0  0  0  0
  1  2  1  0  0  0  0
  1  3  1  0  0  0  0
  1  4  1  0  0  0  0
  1  5  1  0  0  0  0
  5  6  3  0  0  0  0
  6  7  1  0  0  0  0
  7  8  3  0  0  0  0
  8  9  1  0  0  0  0
  9 10  1  0  0  0  0
  9 11  1  0  0  0  0
  9 12  1  0  0  0  0
M  END
> <ChemID>
104412

> <source_casrn>
2809-69-0

> <CAS>
2809-69-0

> <SMILES>
CC#CC#CC

> <NAME>
2,4-HEXADIYNE

> <preferred_name>
2,4-Hexadiyne

> <iupac>
hexa-2,4-diyne

> <MPID>
23316

> <dsstox_substance_id>
DTXSID70182367

> <Canonical_QSARr>
CC#CC#CC

> <InChI_Code_QSARr>
InChI=1S/C6H6/c1-3-5-6-4-2/h1-2H3

> <InChI Key_QSARr>
PCTCNWZFDASPLA-UHFFFAOYSA-N

> <Salt_Solvent>
?

> <BP>
129.5

$$$$
104417
  -INDIGO-08031720192D

 28 28  0  0  0  0  0  0  0  0999 V2000
    0.0000    0.0000    0.0000 C   0  0  0  0  0  0  0  0  0  0  0  0
    0.8000   -1.3857    0.0000 C   0  0  0  0  0  0  0  0  0  0  0  0
    2.4001   -1.3857    0.0000 C   0  0  0  0  0  0  0  0  0  0  0  0
    4.0000   -1.3857    0.0000 H   0  0  0  0  0  0  0  0  0  0  0  0
    3.2000   -2.7713    0.0000 H   0  0  0  0  0  0  0  0  0  0  0  0
    3.2000    0.0000    0.0000 H   0  0  0  0  0  0  0  0  0  0  0  0
    0.0000   -2.7713    0.0000 C   0  0  0  0  0  0  0  0  0  0  0  0
    0.8000   -4.1570    0.0000 C   0  0  0  0  0  0  0  0  0  0  0  0
    1.6000   -5.5426    0.0000 H   0  0  0  0  0  0  0  0  0  0  0  0
    0.0000   -5.5426    0.0000 H   0  0  0  0  0  0  0  0  0  0  0  0
    2.4001   -4.1570    0.0000 H   0  0  0  0  0  0  0  0  0  0  0  0
   -1.6000   -2.7713    0.0000 C   0  0  0  0  0  0  0  0  0  0  0  0
   -2.4000   -4.1569    0.0000 O   0  0  0  0  0  0  0  0  0  0  0  0
   -1.6000   -5.5426    0.0000 H   0  0  0  0  0  0  0  0  0  0  0  0
   -2.4000   -1.3856    0.0000 C   0  0  0  0  0  0  0  0  0  0  0  0
   -4.0001   -1.3856    0.0000 C   0  0  0  0  0  0  0  0  0  0  0  0
   -5.6000   -1.3856    0.0000 H   0  0  0  0  0  0  0  0  0  0  0  0
   -4.8000   -2.7713    0.0000 H   0  0  0  0  0  0  0  0  0  0  0  0
   -4.8000    0.0000    0.0000 H   0  0  0  0  0  0  0  0  0  0  0  0
   -1.6000    0.0000    0.0000 C   0  0  0  0  0  0  0  0  0  0  0  0
   -2.4000    1.3857    0.0000 C   0  0  0  0  0  0  0  0  0  0  0  0
   -3.2000    2.7713    0.0000 H   0  0  0  0  0  0  0  0  0  0  0  0
   -3.9999    1.3857    0.0000 H   0  0  0  0  0  0  0  0  0  0  0  0
   -1.6000    2.7713    0.0000 H   0  0  0  0  0  0  0  0  0  0  0  0
    0.8000    1.3857    0.0000 C   0  0  0  0  0  0  0  0  0  0  0  0
    1.6000    2.7713    0.0000 H   0  0  0  0  0  0  0  0  0  0  0  0
    2.4001    1.3857    0.0000 H   0  0  0  0  0  0  0  0  0  0  0  0
    0.0000    2.7713    0.0000 H   0  0  0  0  0  0  0  0  0  0  0  0
  1  2  1  0  0  0  0
  2  3  1  0  0  0  0
  3  4  1  0  0  0  0
  3  5  1  0  0  0  0
  3  6  1  0  0  0  0
  2  7  2  0  0  0  0
  7  8  1  0  0  0  0
  8  9  1  0  0  0  0
  8 10  1  0  0  0  0
  8 11  1  0  0  0  0
  7 12  1  0  0  0  0
 12 13  1  0  0  0  0
 13 14  1  0  0  0  0
 12 15  2  0  0  0  0
 15 16  1  0  0  0  0
 16 17  1  0  0  0  0
 16 18  1  0  0  0  0
 16 19  1  0  0  0  0
 15 20  1  0  0  0  0
 20  1  2  0  0  0  0
 20 21  1  0  0  0  0
 21 22  1  0  0  0  0
 21 23  1  0  0  0  0
 21 24  1  0  0  0  0
  1 25  1  0  0  0  0
 25 26  1  0  0  0  0
 25 27  1  0  0  0  0
 25 28  1  0  0  0  0
M  END
> <ChemID>
104417

> <source_casrn>
2819-86-5

> <CAS>
2819-86-5

> <SMILES>
Cc1c(C)c(C)c(O)c(C)c1C

> <NAME>
PENTAMETHYL PHENOL

> <preferred_name>
Phenol, pentamethyl-

> <iupac>
2,3,4,5,6-pentamethylphenol

> <MPID>
23321

> <dsstox_substance_id>
DTXSID8062654

> <Canonical_QSARr>
Cc1c(C)c(C)c(O)c(C)c1C

> <InChI_Code_QSARr>
InChI=1S/C11H16O/c1-6-7(2)9(4)11(12)10(5)8(6)3/h12H,1-5H3

> <InChI Key_QSARr>
WALBTDFSFTVXII-UHFFFAOYSA-N

> <Salt_Solvent>
?

> <BP>
267.0

$$$$
104421
  -INDIGO-08031720192D

 16 16  0  0  0  0  0  0  0  0999 V2000
    0.0001   -0.0000    0.0000 C   0  0  0  0  0  0  0  0  0  0  0  0
    0.0001   -1.6000    0.0000 C   0  0  0  0  0  0  0  0  0  0  0  0
    1.3856   -2.4000    0.0000 H   0  0  0  0  0  0  0  0  0  0  0  0
   -1.3856   -2.4000    0.0000 C   0  0  0  0  0  0  0  0  0  0  0  0
   -1.3856   -4.0000    0.0000 Cl  0  0  0  0  0  0  0  0  0  0  0  0
   -2.7712   -1.6000    0.0000 C   0  0  0  0  0  0  0  0  0  0  0  0
   -4.1569   -2.4000    0.0000 H   0  0  0  0  0  0  0  0  0  0  0  0
   -2.7712   -0.0000    0.0000 C   0  0  0  0  0  0  0  0  0  0  0  0
   -4.1569    0.8000    0.0000 H   0  0  0  0  0  0  0  0  0  0  0  0
   -1.3856    0.8000    0.0000 C   0  0  0  0  0  0  0  0  0  0  0  0
   -1.3856    2.4000    0.0000 H   0  0  0  0  0  0  0  0  0  0  0  0
    1.3856    0.8000    0.0000 O   0  0  0  0  0  0  0  0  0  0  0  0
    2.7713   -0.0000    0.0000 C   0  0  0  0  0  0  0  0  0  0  0  0
    4.1569    0.8000    0.0000 H   0  0  0  0  0  0  0  0  0  0  0  0
    4.1569   -0.8000    0.0000 H   0  0  0  0  0  0  0  0  0  0  0  0
    2.7713    1.6000    0.0000 H   0  0  0  0  0  0  0  0  0  0  0  0
  1  2  1  0  0  0  0
  2  3  1  0  0  0  0
  2  4  2  0  0  0  0
  4  5  1  0  0  0  0
  4  6  1  0  0  0  0
  6  7  1  0  0  0  0
  6  8  2  0  0  0  0
  8  9  1  0  0  0  0
  8 10  1  0  0  0  0
 10  1  2  0  0  0  0
 10 11  1  0  0  0  0
  1 12  1  0  0  0  0
 12 13  1  0  0  0  0
 13 14  1  0  0  0  0
 13 15  1  0  0  0  0
 13 16  1  0  0  0  0
M  END
> <ChemID>
104421

> <source_casrn>
2845-89-8

> <CAS>
2845-89-8

> <SMILES>
COc1cccc(Cl)c1

> <NAME>
M-CHLOROANISOLE

> <preferred_name>
Benzene, 1-chloro-3-methoxy-

> <iupac>
1-CHLORO-3-METHOXYBENZENE

> <MPID>
23325

> <dsstox_substance_id>
DTXSID7062667

> <Canonical_QSARr>
COc1cccc(Cl)c1

> <InChI_Code_QSARr>
InChI=1S/C7H7ClO/c1-9-7-4-2-3-6(8)5-7/h2-5H,1H3

> <InChI Key_QSARr>
YUKILTJWFRTXGB-UHFFFAOYSA-N

> <Salt_Solvent>
?

> <BP>
193.5

$$$$
104425
  -INDIGO-08031720192D

 16 16  0  0  0  0  0  0  0  0999 V2000
    0.0000    2.7713    0.0000 Cl  0  0  0  0  0  0  0  0  0  0  0  0
   -0.8001    1.3856    0.0000 C   0  0  0  0  0  0  0  0  0  0  0  0
    0.0000   -0.0000    0.0000 C   0  0  0  0  0  0  0  0  0  0  0  0
    1.6000   -0.0000    0.0000 C   0  0  0  0  0  0  0  0  0  0  0  0
    1.8089   -1.5863    0.0000 H   0  0  0  0  0  0  0  0  0  0  0  0
    2.8693   -0.9740    0.0000 H   0  0  0  0  0  0  0  0  0  0  0  0
    2.4001    1.3856    0.0000 C   0  0  0  0  0  0  0  0  0  0  0  0
    3.2000    2.7713    0.0000 N   0  0  0  0  0  0  0  0  0  0  0  0
   -0.7999   -1.3856    0.0000 C   0  0  0  0  0  0  0  0  0  0  0  0
    0.0000   -2.7713    0.0000 H   0  0  0  0  0  0  0  0  0  0  0  0
   -2.4001   -1.3856    0.0000 C   0  0  0  0  0  0  0  0  0  0  0  0
   -3.2000   -2.7713    0.0000 H   0  0  0  0  0  0  0  0  0  0  0  0
   -3.2000   -0.0000    0.0000 C   0  0  0  0  0  0  0  0  0  0  0  0
   -4.8000   -0.0000    0.0000 H   0  0  0  0  0  0  0  0  0  0  0  0
   -2.4001    1.3856    0.0000 C   0  0  0  0  0  0  0  0  0  0  0  0
   -3.2000    2.7713    0.0000 H   0  0  0  0  0  0  0  0  0  0  0  0
  1  2  1  0  0  0  0
  2  3  1  0  0  0  0
  3  4  1  0  0  0  0
  4  5  1  0  0  0  0
  4  6  1  0  0  0  0
  4  7  1  0  0  0  0
  7  8  3  0  0  0  0
  3  9  2  0  0  0  0
  9 10  1  0  0  0  0
  9 11  1  0  0  0  0
 11 12  1  0  0  0  0
 11 13  2  0  0  0  0
 13 14  1  0  0  0  0
 13 15  1  0  0  0  0
 15  2  2  0  0  0  0
 15 16  1  0  0  0  0
M  END
> <ChemID>
104425

> <source_casrn>
2856-63-5

> <CAS>
2856-63-5

> <SMILES>
N#CCc1ccccc1Cl

> <NAME>
1-Chloro-2-cyanomethylbenzene

> <preferred_name>
(o-Chlorophenyl)acetonitrile

> <iupac>
2-(2-chlorophenyl)acetonitrile

> <MPID>
23329

> <dsstox_substance_id>
DTXSID40182773

> <Canonical_QSARr>
N#CCc1ccccc1Cl

> <InChI_Code_QSARr>
InChI=1S/C8H6ClN/c9-8-4-2-1-3-7(8)5-6-10/h1-4H,5H2

> <InChI Key_QSARr>
MRDUURPIPLIGQX-UHFFFAOYSA-N

> <Salt_Solvent>
?

> <BP>
251.0

$$$$
104429
  -INDIGO-08031720192D

 20 20  0  0  0  0  0  0  0  0999 V2000
   -0.8000    1.3856    0.0000 O   0  0  0  0  0  0  0  0  0  0  0  0
   -0.0000    0.0000    0.0000 C   0  0  0  0  0  0  0  0  0  0  0  0
    1.6000    0.0000    0.0000 C   0  0  0  0  0  0  0  0  0  0  0  0
    2.4000    1.3856    0.0000 O   0  0  0  0  0  0  0  0  0  0  0  0
    4.0001    1.3856    0.0000 C   0  0  0  0  0  0  0  0  0  0  0  0
    4.8000    2.7713    0.0000 H   0  0  0  0  0  0  0  0  0  0  0  0
    5.6000    1.3856    0.0000 H   0  0  0  0  0  0  0  0  0  0  0  0
    3.2000    2.7713    0.0000 H   0  0  0  0  0  0  0  0  0  0  0  0
    2.4000   -1.3856    0.0000 C   0  0  0  0  0  0  0  0  0  0  0  0
    4.0001   -1.3856    0.0000 H   0  0  0  0  0  0  0  0  0  0  0  0
    1.6000   -2.7713    0.0000 C   0  0  0  0  0  0  0  0  0  0  0  0
    2.4000   -4.1569    0.0000 Br  0  0  0  0  0  0  0  0  0  0  0  0
   -0.0000   -2.7713    0.0000 C   0  0  0  0  0  0  0  0  0  0  0  0
   -0.8000   -4.1569    0.0000 H   0  0  0  0  0  0  0  0  0  0  0  0
   -0.8000   -1.3856    0.0000 C   0  0  0  0  0  0  0  0  0  0  0  0
   -2.3999   -1.3856    0.0000 H   0  0  0  0  0  0  0  0  0  0  0  0
   -2.3999    1.3856    0.0000 C   0  0  0  0  0  0  0  0  0  0  0  0
   -3.2000    2.7713    0.0000 H   0  0  0  0  0  0  0  0  0  0  0  0
   -4.0000    1.3856    0.0000 H   0  0  0  0  0  0  0  0  0  0  0  0
   -1.6000    2.7713    0.0000 H   0  0  0  0  0  0  0  0  0  0  0  0
  1  2  1  0  0  0  0
  2  3  1  0  0  0  0
  3  4  1  0  0  0  0
  4  5  1  0  0  0  0
  5  6  1  0  0  0  0
  5  7  1  0  0  0  0
  5  8  1  0  0  0  0
  3  9  2  0  0  0  0
  9 10  1  0  0  0  0
  9 11  1  0  0  0  0
 11 12  1  0  0  0  0
 11 13  2  0  0  0  0
 13 14  1  0  0  0  0
 13 15  1  0  0  0  0
 15  2  2  0  0  0  0
 15 16  1  0  0  0  0
  1 17  1  0  0  0  0
 17 18  1  0  0  0  0
 17 19  1  0  0  0  0
 17 20  1  0  0  0  0
M  END
> <ChemID>
104429

> <source_casrn>
2859-78-1

> <CAS>
2859-78-1

> <SMILES>
COc1ccc(Br)cc1OC

> <NAME>
Benzene, 4-bromo-1,2-dimethoxy-

> <preferred_name>
Benzene, 4-bromo-1,2-dimethoxy-

> <iupac>
4-Bromo-1,2-dimethoxybenzene

> <MPID>
23333

> <dsstox_substance_id>
DTXSID1062673

> <Canonical_QSARr>
COc1ccc(Br)cc1OC

> <InChI_Code_QSARr>
InChI=1S/C8H9BrO2/c1-10-7-4-3-6(9)5-8(7)11-2/h3-5H,1-2H3

> <InChI Key_QSARr>
KBTMGSMZIKLAHN-UHFFFAOYSA-N

> <Salt_Solvent>
?

> <BP>
254.5

$$$$
104434
  -INDIGO-08031720192D

 24 24  0  0  0  0  0  0  0  0999 V2000
   -0.0001   -0.0000    0.0000 C   0  0  0  0  0  0  0  0  0  0  0  0
    0.8000   -1.3857    0.0000 C   0  0  0  0  0  0  0  0  0  0  0  0
    2.4000   -1.3857    0.0000 C   0  0  0  0  0  0  0  0  0  0  0  0
    4.0000   -1.3857    0.0000 H   0  0  0  0  0  0  0  0  0  0  0  0
    3.2001   -2.7713    0.0000 H   0  0  0  0  0  0  0  0  0  0  0  0
    3.2001   -0.0000    0.0000 H   0  0  0  0  0  0  0  0  0  0  0  0
   -0.0001   -2.7713    0.0000 C   0  0  0  0  0  0  0  0  0  0  0  0
    0.8000   -4.1569    0.0000 H   0  0  0  0  0  0  0  0  0  0  0  0
   -1.6001   -2.7713    0.0000 C   0  0  0  0  0  0  0  0  0  0  0  0
   -2.4000   -4.1569    0.0000 H   0  0  0  0  0  0  0  0  0  0  0  0
   -2.4000   -1.3857    0.0000 C   0  0  0  0  0  0  0  0  0  0  0  0
   -4.0000   -1.3857    0.0000 H   0  0  0  0  0  0  0  0  0  0  0  0
   -1.6001   -0.0000    0.0000 C   0  0  0  0  0  0  0  0  0  0  0  0
   -2.4000    1.3856    0.0000 C   0  0  0  0  0  0  0  0  0  0  0  0
   -3.1999    2.7713    0.0000 H   0  0  0  0  0  0  0  0  0  0  0  0
   -4.0000    1.3856    0.0000 H   0  0  0  0  0  0  0  0  0  0  0  0
   -1.5999    2.7713    0.0000 H   0  0  0  0  0  0  0  0  0  0  0  0
    0.8000    1.3856    0.0000 C   0  0  0  0  0  0  0  0  0  0  0  0
    0.5911    2.9720    0.0000 H   0  0  0  0  0  0  0  0  0  0  0  0
   -0.4693    2.3596    0.0000 H   0  0  0  0  0  0  0  0  0  0  0  0
    2.4000    1.3856    0.0000 C   0  0  0  0  0  0  0  0  0  0  0  0
    3.1999    2.7713    0.0000 H   0  0  0  0  0  0  0  0  0  0  0  0
    4.0000    1.3856    0.0000 H   0  0  0  0  0  0  0  0  0  0  0  0
    1.5999    2.7713    0.0000 H   0  0  0  0  0  0  0  0  0  0  0  0
  1  2  1  0  0  0  0
  2  3  1  0  0  0  0
  3  4  1  0  0  0  0
  3  5  1  0  0  0  0
  3  6  1  0  0  0  0
  2  7  2  0  0  0  0
  7  8  1  0  0  0  0
  7  9  1  0  0  0  0
  9 10  1  0  0  0  0
  9 11  2  0  0  0  0
 11 12  1  0  0  0  0
 11 13  1  0  0  0  0
 13  1  2  0  0  0  0
 13 14  1  0  0  0  0
 14 15  1  0  0  0  0
 14 16  1  0  0  0  0
 14 17  1  0  0  0  0
  1 18  1  0  0  0  0
 18 19  1  0  0  0  0
 18 20  1  0  0  0  0
 18 21  1  0  0  0  0
 21 22  1  0  0  0  0
 21 23  1  0  0  0  0
 21 24  1  0  0  0  0
M  END
> <ChemID>
104434

> <source_casrn>
2870-04-4

> <CAS>
2870-04-4

> <SMILES>
CCc1c(C)cccc1C

> <NAME>
1,3-DIMETHYL-2-ETHYLBENZENE

> <preferred_name>
2-Ethyl-m-xylene

> <iupac>
2-ethyl-1,3-dimethylbenzene

> <MPID>
23337

> <dsstox_substance_id>
DTXSID1062675

> <Canonical_QSARr>
CCc1c(C)cccc1C

> <InChI_Code_QSARr>
InChI=1S/C10H14/c1-4-10-8(2)6-5-7-9(10)3/h5-7H,4H2,1-3H3

> <InChI Key_QSARr>
CHIKRULMSSADAF-UHFFFAOYSA-N

> <Salt_Solvent>
?

> <BP>
190.0

$$$$
104438
  -INDIGO-08031720192D

 30 31  0  0  0  0  0  0  0  0999 V2000
    0.0000    0.0000    0.0000 C   0  0  0  0  0  0  0  0  0  0  0  0
    1.6000    0.0000    0.0000 C   0  0  0  0  0  0  0  0  0  0  0  0
    2.4000    1.3857    0.0000 C   0  0  0  0  0  0  0  0  0  0  0  0
    1.6000    2.7713    0.0000 H   0  0  0  0  0  0  0  0  0  0  0  0
    4.0000    1.3857    0.0000 C   0  0  0  0  0  0  0  0  0  0  0  0
    4.8000    0.0000    0.0000 C   0  0  0  0  0  0  0  0  0  0  0  0
    6.4000    0.0000    0.0000 C   0  0  0  0  0  0  0  0  0  0  0  0
    7.2000   -1.3856    0.0000 H   0  0  0  0  0  0  0  0  0  0  0  0
    7.2000    1.3857    0.0000 C   0  0  0  0  0  0  0  0  0  0  0  0
    8.8000    1.3857    0.0000 H   0  0  0  0  0  0  0  0  0  0  0  0
    6.4000    2.7713    0.0000 C   0  0  0  0  0  0  0  0  0  0  0  0
    7.2000    4.1569    0.0000 H   0  0  0  0  0  0  0  0  0  0  0  0
    4.8000    2.7713    0.0000 C   0  0  0  0  0  0  0  0  0  0  0  0
    4.0000    4.1569    0.0000 H   0  0  0  0  0  0  0  0  0  0  0  0
    4.0000   -1.3856    0.0000 C   0  0  0  0  0  0  0  0  0  0  0  0
    4.8000   -2.7713    0.0000 H   0  0  0  0  0  0  0  0  0  0  0  0
    2.4000   -1.3856    0.0000 C   0  0  0  0  0  0  0  0  0  0  0  0
    1.6000   -2.7713    0.0000 H   0  0  0  0  0  0  0  0  0  0  0  0
   -1.6000    0.0000    0.0000 C   0  0  0  0  0  0  0  0  0  0  0  0
   -3.2000    0.0000    0.0000 H   0  0  0  0  0  0  0  0  0  0  0  0
   -2.6285   -1.2257    0.0000 H   0  0  0  0  0  0  0  0  0  0  0  0
   -2.6285    1.2257    0.0000 H   0  0  0  0  0  0  0  0  0  0  0  0
    0.0000   -1.6000    0.0000 C   0  0  0  0  0  0  0  0  0  0  0  0
    0.2778   -3.1757    0.0000 H   0  0  0  0  0  0  0  0  0  0  0  0
   -1.2257   -2.6284    0.0000 H   0  0  0  0  0  0  0  0  0  0  0  0
   -1.5035   -1.0527    0.0000 H   0  0  0  0  0  0  0  0  0  0  0  0
    0.0000    1.6000    0.0000 C   0  0  0  0  0  0  0  0  0  0  0  0
    0.2778    3.1757    0.0000 H   0  0  0  0  0  0  0  0  0  0  0  0
   -1.2257    2.6284    0.0000 H   0  0  0  0  0  0  0  0  0  0  0  0
   -1.5035    1.0528    0.0000 H   0  0  0  0  0  0  0  0  0  0  0  0
  1  2  1  0  0  0  0
  2  3  1  0  0  0  0
  3  4  1  0  0  0  0
  3  5  2  0  0  0  0
  5  6  1  0  0  0  0
  6  7  1  0  0  0  0
  7  8  1  0  0  0  0
  7  9  2  0  0  0  0
  9 10  1  0  0  0  0
  9 11  1  0  0  0  0
 11 12  1  0  0  0  0
 11 13  2  0  0  0  0
 13  5  1  0  0  0  0
 13 14  1  0  0  0  0
  6 15  2  0  0  0  0
 15 16  1  0  0  0  0
 15 17  1  0  0  0  0
 17  2  2  0  0  0  0
 17 18  1  0  0  0  0
  1 19  1  0  0  0  0
 19 20  1  0  0  0  0
 19 21  1  0  0  0  0
 19 22  1  0  0  0  0
  1 23  1  0  0  0  0
 23 24  1  0  0  0  0
 23 25  1  0  0  0  0
 23 26  1  0  0  0  0
  1 27  1  0  0  0  0
 27 28  1  0  0  0  0
 27 29  1  0  0  0  0
 27 30  1  0  0  0  0
M  END
> <ChemID>
104438

> <source_casrn>
2876-35-9

> <CAS>
2876-35-9

> <SMILES>
CC(C)(C)c1cc2ccccc2cc1

> <NAME>
NAPHTHALENE, 2-(1,1-DIMETHYLETHYL)-

> <preferred_name>
Naphthalene, 2-(1,1-dimethylethyl)-

> <iupac>
2-tert-Butylnaphthalene

> <MPID>
23341

> <dsstox_substance_id>
DTXSID90182945

> <Canonical_QSARr>
CC(C)(C)c1cc2ccccc2cc1

> <InChI_Code_QSARr>
InChI=1S/C14H16/c1-14(2,3)13-9-8-11-6-4-5-7-12(11)10-13/h4-10H,1-3H3

> <InChI Key_QSARr>
MCEORGGPAKTORV-UHFFFAOYSA-N

> <Salt_Solvent>
?

> <BP>
276.0

$$$$
104442
  -INDIGO-08031720192D

 40 41  0  0  0  0  0  0  0  0999 V2000
   -0.0000    0.0000    0.0000 C   0  0  0  0  0  0  0  0  0  0  0  0
    0.1115    1.5961    0.0000 H   0  0  0  0  0  0  0  0  0  0  0  0
   -1.5757    0.2779    0.0000 C   0  0  0  0  0  0  0  0  0  0  0  0
   -2.4354    1.6273    0.0000 H   0  0  0  0  0  0  0  0  0  0  0  0
   -1.2294    1.8399    0.0000 H   0  0  0  0  0  0  0  0  0  0  0  0
   -2.8013   -0.7506    0.0000 C   0  0  0  0  0  0  0  0  0  0  0  0
   -1.9416   -2.1000    0.0000 H   0  0  0  0  0  0  0  0  0  0  0  0
   -3.1476   -2.3127    0.0000 H   0  0  0  0  0  0  0  0  0  0  0  0
   -4.3049   -0.2034    0.0000 C   0  0  0  0  0  0  0  0  0  0  0  0
   -5.1646    1.1461    0.0000 H   0  0  0  0  0  0  0  0  0  0  0  0
   -3.9586    1.3587    0.0000 H   0  0  0  0  0  0  0  0  0  0  0  0
   -5.5305   -1.2318    0.0000 C   0  0  0  0  0  0  0  0  0  0  0  0
   -4.3049   -2.2603    0.0000 H   0  0  0  0  0  0  0  0  0  0  0  0
   -6.3305    0.1538    0.0000 C   0  0  0  0  0  0  0  0  0  0  0  0
   -4.7549    0.4316    0.0000 H   0  0  0  0  0  0  0  0  0  0  0  0
   -6.6084    1.7294    0.0000 H   0  0  0  0  0  0  0  0  0  0  0  0
   -7.9306    0.1538    0.0000 C   0  0  0  0  0  0  0  0  0  0  0  0
   -7.6527    1.7294    0.0000 H   0  0  0  0  0  0  0  0  0  0  0  0
   -9.4341    0.7010    0.0000 H   0  0  0  0  0  0  0  0  0  0  0  0
   -8.7306   -1.2318    0.0000 C   0  0  0  0  0  0  0  0  0  0  0  0
   -9.9562   -0.2034    0.0000 H   0  0  0  0  0  0  0  0  0  0  0  0
   -9.9562   -2.2603    0.0000 H   0  0  0  0  0  0  0  0  0  0  0  0
   -7.9306   -2.6175    0.0000 C   0  0  0  0  0  0  0  0  0  0  0  0
   -9.4341   -3.1647    0.0000 H   0  0  0  0  0  0  0  0  0  0  0  0
   -7.6527   -4.1932    0.0000 H   0  0  0  0  0  0  0  0  0  0  0  0
   -6.3305   -2.6175    0.0000 C   0  0  0  0  0  0  0  0  0  0  0  0
   -6.6084   -4.1932    0.0000 H   0  0  0  0  0  0  0  0  0  0  0  0
   -4.8270   -3.1647    0.0000 H   0  0  0  0  0  0  0  0  0  0  0  0
    1.5990    0.0558    0.0000 C   0  0  0  0  0  0  0  0  0  0  0  0
    1.3764    1.6402    0.0000 H   0  0  0  0  0  0  0  0  0  0  0  0
    3.1515    0.4429    0.0000 H   0  0  0  0  0  0  0  0  0  0  0  0
    2.1463   -1.4477    0.0000 C   0  0  0  0  0  0  0  0  0  0  0  0
    3.5843   -0.7463    0.0000 H   0  0  0  0  0  0  0  0  0  0  0  0
    2.9940   -2.8046    0.0000 H   0  0  0  0  0  0  0  0  0  0  0  0
    0.8855   -2.4327    0.0000 C   0  0  0  0  0  0  0  0  0  0  0  0
    1.9969   -3.5837    0.0000 H   0  0  0  0  0  0  0  0  0  0  0  0
   -0.1430   -3.6584    0.0000 H   0  0  0  0  0  0  0  0  0  0  0  0
   -0.4410   -1.5380    0.0000 C   0  0  0  0  0  0  0  0  0  0  0  0
   -1.1922   -2.9508    0.0000 H   0  0  0  0  0  0  0  0  0  0  0  0
   -1.9245   -0.9386    0.0000 H   0  0  0  0  0  0  0  0  0  0  0  0
  1  2  1  0  0  0  0
  1  3  1  0  0  0  0
  3  4  1  0  0  0  0
  3  5  1  0  0  0  0
  3  6  1  0  0  0  0
  6  7  1  0  0  0  0
  6  8  1  0  0  0  0
  6  9  1  0  0  0  0
  9 10  1  0  0  0  0
  9 11  1  0  0  0  0
  9 12  1  0  0  0  0
 12 13  1  0  0  0  0
 12 14  1  0  0  0  0
 14 15  1  0  0  0  0
 14 16  1  0  0  0  0
 14 17  1  0  0  0  0
 17 18  1  0  0  0  0
 17 19  1  0  0  0  0
 17 20  1  0  0  0  0
 20 21  1  0  0  0  0
 20 22  1  0  0  0  0
 20 23  1  0  0  0  0
 23 24  1  0  0  0  0
 23 25  1  0  0  0  0
 23 26  1  0  0  0  0
 26 12  1  0  0  0  0
 26 27  1  0  0  0  0
 26 28  1  0  0  0  0
  1 29  1  0  0  0  0
 29 30  1  0  0  0  0
 29 31  1  0  0  0  0
 29 32  1  0  0  0  0
 32 33  1  0  0  0  0
 32 34  1  0  0  0  0
 32 35  1  0  0  0  0
 35 36  1  0  0  0  0
 35 37  1  0  0  0  0
 35 38  1  0  0  0  0
 38  1  1  0  0  0  0
 38 39  1  0  0  0  0
 38 40  1  0  0  0  0
M  END
> <ChemID>
104442

> <source_casrn>
2883-07-0

> <CAS>
2883-07-0

> <SMILES>
C(CCC1CCCCC1)C1CCCC1

> <NAME>
CYCLOHEXANE, (3-CYCLOPENTYLPROPYL)-

> <preferred_name>
1-Cyclohexyl-3-cyclopentylpropane

> <iupac>
C14H26

> <MPID>
23345

> <dsstox_substance_id>
DTXSID30284770

> <Canonical_QSARr>
C(CCC1CCCCC1)C1CCCC1

> <InChI_Code_QSARr>
InChI=1S/C14H26/c1-2-7-13(8-3-1)11-6-12-14-9-4-5-10-14/h13-14H,1-12H2

> <InChI Key_QSARr>
CPBZARXQRZTYGI-UHFFFAOYSA-N

> <Salt_Solvent>
?

> <BP>
270.0

$$$$
104447
  -INDIGO-08031720192D

 57 56  0  0  0  0  0  0  0  0999 V2000
   -0.0002    0.0000    0.0000 C   0  0  0  0  0  0  0  0  0  0  0  0
    0.6121    1.4782    0.0000 H   0  0  0  0  0  0  0  0  0  0  0  0
   -0.6121    1.4782    0.0000 H   0  0  0  0  0  0  0  0  0  0  0  0
    1.3855   -0.8000    0.0000 C   0  0  0  0  0  0  0  0  0  0  0  0
    0.7732   -2.2782    0.0000 H   0  0  0  0  0  0  0  0  0  0  0  0
    1.9979   -2.2782    0.0000 H   0  0  0  0  0  0  0  0  0  0  0  0
    2.7713    0.0000    0.0000 C   0  0  0  0  0  0  0  0  0  0  0  0
    3.3836    1.4782    0.0000 H   0  0  0  0  0  0  0  0  0  0  0  0
    2.1590    1.4782    0.0000 H   0  0  0  0  0  0  0  0  0  0  0  0
    4.1570   -0.8000    0.0000 C   0  0  0  0  0  0  0  0  0  0  0  0
    3.5447   -2.2782    0.0000 H   0  0  0  0  0  0  0  0  0  0  0  0
    4.7693   -2.2782    0.0000 H   0  0  0  0  0  0  0  0  0  0  0  0
    5.5428    0.0000    0.0000 C   0  0  0  0  0  0  0  0  0  0  0  0
    6.1547    1.4782    0.0000 H   0  0  0  0  0  0  0  0  0  0  0  0
    4.9305    1.4782    0.0000 H   0  0  0  0  0  0  0  0  0  0  0  0
    6.9281   -0.8000    0.0000 C   0  0  0  0  0  0  0  0  0  0  0  0
    6.3158   -2.2782    0.0000 H   0  0  0  0  0  0  0  0  0  0  0  0
    7.5404   -2.2782    0.0000 H   0  0  0  0  0  0  0  0  0  0  0  0
    8.3138    0.0000    0.0000 C   0  0  0  0  0  0  0  0  0  0  0  0
    8.9262    1.4782    0.0000 H   0  0  0  0  0  0  0  0  0  0  0  0
    7.7015    1.4782    0.0000 H   0  0  0  0  0  0  0  0  0  0  0  0
    9.6996   -0.8000    0.0000 C   0  0  0  0  0  0  0  0  0  0  0  0
    9.0873   -2.2782    0.0000 H   0  0  0  0  0  0  0  0  0  0  0  0
   10.3119   -2.2782    0.0000 H   0  0  0  0  0  0  0  0  0  0  0  0
   11.0853    0.0000    0.0000 C   0  0  0  0  0  0  0  0  0  0  0  0
   11.6972    1.4782    0.0000 H   0  0  0  0  0  0  0  0  0  0  0  0
   10.4730    1.4782    0.0000 H   0  0  0  0  0  0  0  0  0  0  0  0
   12.4707   -0.8000    0.0000 C   0  0  0  0  0  0  0  0  0  0  0  0
   13.8564   -1.6000    0.0000 H   0  0  0  0  0  0  0  0  0  0  0  0
   13.8564    0.0000    0.0000 H   0  0  0  0  0  0  0  0  0  0  0  0
   12.4707   -2.4000    0.0000 H   0  0  0  0  0  0  0  0  0  0  0  0
   -1.3855   -0.8000    0.0000 C   0  0  0  0  0  0  0  0  0  0  0  0
   -1.9979   -2.2782    0.0000 H   0  0  0  0  0  0  0  0  0  0  0  0
   -0.7732   -2.2782    0.0000 H   0  0  0  0  0  0  0  0  0  0  0  0
   -2.7713    0.0000    0.0000 C   0  0  0  0  0  0  0  0  0  0  0  0
   -2.1590    1.4782    0.0000 H   0  0  0  0  0  0  0  0  0  0  0  0
   -3.3836    1.4782    0.0000 H   0  0  0  0  0  0  0  0  0  0  0  0
   -4.1570   -0.8000    0.0000 C   0  0  0  0  0  0  0  0  0  0  0  0
   -4.7693   -2.2782    0.0000 H   0  0  0  0  0  0  0  0  0  0  0  0
   -3.5447   -2.2782    0.0000 H   0  0  0  0  0  0  0  0  0  0  0  0
   -5.5428    0.0000    0.0000 C   0  0  0  0  0  0  0  0  0  0  0  0
   -4.9305    1.4782    0.0000 H   0  0  0  0  0  0  0  0  0  0  0  0
   -6.1547    1.4782    0.0000 H   0  0  0  0  0  0  0  0  0  0  0  0
   -6.9281   -0.8000    0.0000 C   0  0  0  0  0  0  0  0  0  0  0  0
   -7.5404   -2.2782    0.0000 H   0  0  0  0  0  0  0  0  0  0  0  0
   -6.3158   -2.2782    0.0000 H   0  0  0  0  0  0  0  0  0  0  0  0
   -8.3138    0.0000    0.0000 C   0  0  0  0  0  0  0  0  0  0  0  0
   -7.7015    1.4782    0.0000 H   0  0  0  0  0  0  0  0  0  0  0  0
   -8.9262    1.4782    0.0000 H   0  0  0  0  0  0  0  0  0  0  0  0
   -9.6996   -0.8000    0.0000 C   0  0  0  0  0  0  0  0  0  0  0  0
  -10.3119   -2.2782    0.0000 H   0  0  0  0  0  0  0  0  0  0  0  0
   -9.0873   -2.2782    0.0000 H   0  0  0  0  0  0  0  0  0  0  0  0
  -11.0853    0.0000    0.0000 C   0  0  0  0  0  0  0  0  0  0  0  0
  -10.4730    1.4782    0.0000 H   0  0  0  0  0  0  0  0  0  0  0  0
  -11.6972    1.4782    0.0000 H   0  0  0  0  0  0  0  0  0  0  0  0
  -12.4707   -0.8000    0.0000 S   0  0  0  0  0  0  0  0  0  0  0  0
  -13.8564    0.0000    0.0000 H   0  0  0  0  0  0  0  0  0  0  0  0
  1  2  1  0  0  0  0
  1  3  1  0  0  0  0
  1  4  1  0  0  0  0
  4  5  1  0  0  0  0
  4  6  1  0  0  0  0
  4  7  1  0  0  0  0
  7  8  1  0  0  0  0
  7  9  1  0  0  0  0
  7 10  1  0  0  0  0
 10 11  1  0  0  0  0
 10 12  1  0  0  0  0
 10 13  1  0  0  0  0
 13 14  1  0  0  0  0
 13 15  1  0  0  0  0
 13 16  1  0  0  0  0
 16 17  1  0  0  0  0
 16 18  1  0  0  0  0
 16 19  1  0  0  0  0
 19 20  1  0  0  0  0
 19 21  1  0  0  0  0
 19 22  1  0  0  0  0
 22 23  1  0  0  0  0
 22 24  1  0  0  0  0
 22 25  1  0  0  0  0
 25 26  1  0  0  0  0
 25 27  1  0  0  0  0
 25 28  1  0  0  0  0
 28 29  1  0  0  0  0
 28 30  1  0  0  0  0
 28 31  1  0  0  0  0
  1 32  1  0  0  0  0
 32 33  1  0  0  0  0
 32 34  1  0  0  0  0
 32 35  1  0  0  0  0
 35 36  1  0  0  0  0
 35 37  1  0  0  0  0
 35 38  1  0  0  0  0
 38 39  1  0  0  0  0
 38 40  1  0  0  0  0
 38 41  1  0  0  0  0
 41 42  1  0  0  0  0
 41 43  1  0  0  0  0
 41 44  1  0  0  0  0
 44 45  1  0  0  0  0
 44 46  1  0  0  0  0
 44 47  1  0  0  0  0
 47 48  1  0  0  0  0
 47 49  1  0  0  0  0
 47 50  1  0  0  0  0
 50 51  1  0  0  0  0
 50 52  1  0  0  0  0
 50 53  1  0  0  0  0
 53 54  1  0  0  0  0
 53 55  1  0  0  0  0
 53 56  1  0  0  0  0
 56 57  1  0  0  0  0
M  END
> <ChemID>
104447

> <source_casrn>
2885-00-9

> <CAS>
2885-00-9

> <SMILES>
CCCCCCCCCCCCCCCCCCS

> <NAME>
1-OCTADECANETHIOL

> <preferred_name>
1-Octadecanethiol

> <iupac>
octadecane-1-thiol

> <MPID>
23349

> <dsstox_substance_id>
DTXSID0062686

> <Canonical_QSARr>
CCCCCCCCCCCCCCCCCCS

> <InChI_Code_QSARr>
InChI=1S/C18H38S/c1-2-3-4-5-6-7-8-9-10-11-12-13-14-15-16-17-18-19/h19H,2-18H2,1H3

> <InChI Key_QSARr>
QJAOYSPHSNGHNC-UHFFFAOYSA-N

> <Salt_Solvent>
?

> <BP>
360.0

$$$$
104451
  -INDIGO-08031720192D

 24 23  0  0  0  0  0  0  0  0999 V2000
   -0.0001    0.0000    0.0000 Si  0  0  0  0  0  0  0  0  0  0  0  0
    1.3856    0.8000    0.0000 C   0  0  0  0  0  0  0  0  0  0  0  0
    2.7713    1.6000    0.0000 H   0  0  0  0  0  0  0  0  0  0  0  0
    2.7713    0.0000    0.0000 H   0  0  0  0  0  0  0  0  0  0  0  0
    1.3856    2.4000    0.0000 H   0  0  0  0  0  0  0  0  0  0  0  0
   -0.8000    1.3856    0.0000 C   0  0  0  0  0  0  0  0  0  0  0  0
   -1.6001    2.7713    0.0000 H   0  0  0  0  0  0  0  0  0  0  0  0
   -1.6482    1.6609    0.0000 H   0  0  0  0  0  0  0  0  0  0  0  0
   -0.0001    2.7713    0.0000 H   0  0  0  0  0  0  0  0  0  0  0  0
    0.8000   -1.3856    0.0000 C   0  0  0  0  0  0  0  0  0  0  0  0
    1.6001   -2.7713    0.0000 H   0  0  0  0  0  0  0  0  0  0  0  0
   -0.0001   -2.7713    0.0000 H   0  0  0  0  0  0  0  0  0  0  0  0
    2.4000   -1.3856    0.0000 H   0  0  0  0  0  0  0  0  0  0  0  0
   -1.5035   -0.5472    0.0000 C   0  0  0  0  0  0  0  0  0  0  0  0
   -2.3631   -1.8967    0.0000 H   0  0  0  0  0  0  0  0  0  0  0  0
   -1.1572   -2.1093    0.0000 H   0  0  0  0  0  0  0  0  0  0  0  0
   -2.7292    0.4813    0.0000 C   0  0  0  0  0  0  0  0  0  0  0  0
   -2.4242    1.3192    0.0000 H   0  0  0  0  0  0  0  0  0  0  0  0
   -3.0754    2.0433    0.0000 H   0  0  0  0  0  0  0  0  0  0  0  0
   -4.2327   -0.0660    0.0000 C   0  0  0  0  0  0  0  0  0  0  0  0
   -5.0923   -1.4154    0.0000 H   0  0  0  0  0  0  0  0  0  0  0  0
   -3.8863   -1.6281    0.0000 H   0  0  0  0  0  0  0  0  0  0  0  0
   -5.4584    0.9625    0.0000 O   0  0  0  0  0  0  0  0  0  0  0  0
   -6.9619    0.4152    0.0000 H   0  0  0  0  0  0  0  0  0  0  0  0
  1  2  1  0  0  0  0
  2  3  1  0  0  0  0
  2  4  1  0  0  0  0
  2  5  1  0  0  0  0
  1  6  1  0  0  0  0
  6  7  1  0  0  0  0
  6  8  1  0  0  0  0
  6  9  1  0  0  0  0
  1 10  1  0  0  0  0
 10 11  1  0  0  0  0
 10 12  1  0  0  0  0
 10 13  1  0  0  0  0
  1 14  1  0  0  0  0
 14 15  1  0  0  0  0
 14 16  1  0  0  0  0
 14 17  1  0  0  0  0
 17 18  1  0  0  0  0
 17 19  1  0  0  0  0
 17 20  1  0  0  0  0
 20 21  1  0  0  0  0
 20 22  1  0  0  0  0
 20 23  1  0  0  0  0
 23 24  1  0  0  0  0
M  END
> <ChemID>
104451

> <source_casrn>
2917-47-7

> <CAS>
2917-47-7

> <SMILES>
C[Si](C)(C)CCCO

> <NAME>
Propanol-trimethyl silane

> <preferred_name>
3-(Trimethylsilyl)-1-propanol

> <iupac>
3-trimethylsilylpropan-1-ol

> <MPID>
23353

> <dsstox_substance_id>
DTXSID5062710

> <Canonical_QSARr>
C[Si](C)(C)CCCO

> <InChI_Code_QSARr>
InChI=1S/C6H16OSi/c1-8(2,3)6-4-5-7/h7H,4-6H2,1-3H3

> <InChI Key_QSARr>
YNUUCDHAZGAVEZ-UHFFFAOYSA-N

> <Salt_Solvent>
?

> <BP>
141.0

$$$$
104455
  -INDIGO-08031720192D

 15 14  0  0  0  0  0  0  0  0999 V2000
   -1.3857    0.8000    0.0000 C   0  0  0  0  0  0  0  0  0  0  0  0
    0.0001    0.0000    0.0000 C   0  0  0  0  0  0  0  0  0  0  0  0
    0.6124   -1.4782    0.0000 H   0  0  0  0  0  0  0  0  0  0  0  0
   -0.6122   -1.4782    0.0000 H   0  0  0  0  0  0  0  0  0  0  0  0
    1.3857    0.8000    0.0000 C   0  0  0  0  0  0  0  0  0  0  0  0
    0.7734    2.2782    0.0000 H   0  0  0  0  0  0  0  0  0  0  0  0
    1.9980    2.2782    0.0000 H   0  0  0  0  0  0  0  0  0  0  0  0
    2.7713    0.0000    0.0000 S   0  0  0  0  0  0  0  0  0  0  0  0
    4.1569    0.8000    0.0000 H   0  0  0  0  0  0  0  0  0  0  0  0
   -2.7713    0.0000    0.0000 O   0  0  0  0  0  0  0  0  0  0  0  0
   -4.1569    0.8000    0.0000 C   0  0  0  0  0  0  0  0  0  0  0  0
   -5.5426    1.6000    0.0000 H   0  0  0  0  0  0  0  0  0  0  0  0
   -5.5426    0.0000    0.0000 H   0  0  0  0  0  0  0  0  0  0  0  0
   -4.1569    2.4000    0.0000 H   0  0  0  0  0  0  0  0  0  0  0  0
   -1.3857    2.4000    0.0000 O   0  0  0  0  0  0  0  0  0  0  0  0
  1  2  1  0  0  0  0
  2  3  1  0  0  0  0
  2  4  1  0  0  0  0
  2  5  1  0  0  0  0
  5  6  1  0  0  0  0
  5  7  1  0  0  0  0
  5  8  1  0  0  0  0
  8  9  1  0  0  0  0
  1 10  1  0  0  0  0
 10 11  1  0  0  0  0
 11 12  1  0  0  0  0
 11 13  1  0  0  0  0
 11 14  1  0  0  0  0
  1 15  2  0  0  0  0
M  END
> <ChemID>
104455

> <source_casrn>
2935-90-2

> <CAS>
2935-90-2

> <SMILES>
COC(=O)CCS

> <NAME>
Methyl 3-mercaptopropionate

> <preferred_name>
Methyl 3-sulfanylpropanoate

> <iupac>
methyl 3-sulfanylpropanoate

> <MPID>
23357

> <dsstox_substance_id>
DTXSID6027509

> <Canonical_QSARr>
COC(=O)CCS

> <InChI_Code_QSARr>
InChI=1S/C4H8O2S/c1-6-4(5)2-3-7/h7H,2-3H2,1H3

> <InChI Key_QSARr>
LDTLDBDUBGAEDT-UHFFFAOYSA-N

> <Salt_Solvent>
?

> <BP>
166.0

$$$$
104459
  -INDIGO-08031720192D

 19 19  0  0  0  0  0  0  0  0999 V2000
   -3.2000    2.7713    0.0000 N   0  0  0  0  0  0  0  0  0  0  0  0
   -2.4000    1.3856    0.0000 C   0  0  0  0  0  0  0  0  0  0  0  0
   -1.5999   -0.0000    0.0000 C   0  0  0  0  0  0  0  0  0  0  0  0
   -2.8694   -0.9740    0.0000 H   0  0  0  0  0  0  0  0  0  0  0  0
   -1.8088   -1.5863    0.0000 H   0  0  0  0  0  0  0  0  0  0  0  0
    0.0000   -0.0000    0.0000 C   0  0  0  0  0  0  0  0  0  0  0  0
    0.8000    1.3856    0.0000 C   0  0  0  0  0  0  0  0  0  0  0  0
    0.0000    2.7713    0.0000 H   0  0  0  0  0  0  0  0  0  0  0  0
    2.4000    1.3856    0.0000 C   0  0  0  0  0  0  0  0  0  0  0  0
    3.2000    2.7713    0.0000 H   0  0  0  0  0  0  0  0  0  0  0  0
    3.2000   -0.0000    0.0000 C   0  0  0  0  0  0  0  0  0  0  0  0
    4.8001   -0.0000    0.0000 C   0  0  0  0  0  0  0  0  0  0  0  0
    6.4000   -0.0000    0.0000 H   0  0  0  0  0  0  0  0  0  0  0  0
    5.6000   -1.3856    0.0000 H   0  0  0  0  0  0  0  0  0  0  0  0
    5.6000    1.3856    0.0000 H   0  0  0  0  0  0  0  0  0  0  0  0
    2.4000   -1.3856    0.0000 C   0  0  0  0  0  0  0  0  0  0  0  0
    3.2000   -2.7713    0.0000 H   0  0  0  0  0  0  0  0  0  0  0  0
    0.8000   -1.3856    0.0000 C   0  0  0  0  0  0  0  0  0  0  0  0
    0.0000   -2.7713    0.0000 H   0  0  0  0  0  0  0  0  0  0  0  0
  1  2  3  0  0  0  0
  2  3  1  0  0  0  0
  3  4  1  0  0  0  0
  3  5  1  0  0  0  0
  3  6  1  0  0  0  0
  6  7  1  0  0  0  0
  7  8  1  0  0  0  0
  7  9  2  0  0  0  0
  9 10  1  0  0  0  0
  9 11  1  0  0  0  0
 11 12  1  0  0  0  0
 12 13  1  0  0  0  0
 12 14  1  0  0  0  0
 12 15  1  0  0  0  0
 11 16  2  0  0  0  0
 16 17  1  0  0  0  0
 16 18  1  0  0  0  0
 18  6  2  0  0  0  0
 18 19  1  0  0  0  0
M  END
> <ChemID>
104459

> <source_casrn>
2947-61-7

> <CAS>
2947-61-7

> <SMILES>
Cc1ccc(CC#N)cc1

> <NAME>
BENZENEACETONITRILE, 4-METHYL-

> <preferred_name>
p-Tolylacetonitrile

> <iupac>
2-(4-methylphenyl)acetonitrile

> <MPID>
23361

> <dsstox_substance_id>
DTXSID90183674

> <Canonical_QSARr>
Cc1ccc(CC#N)cc1

> <InChI_Code_QSARr>
InChI=1S/C9H9N/c1-8-2-4-9(5-3-8)6-7-10/h2-5H,6H2,1H3

> <InChI Key_QSARr>
RNHKXHKUKJXLAU-UHFFFAOYSA-N

> <Salt_Solvent>
?

> <BP>
242.5

$$$$
104463
  -INDIGO-08031720192D

 18 18  0  0  0  0  0  0  0  0999 V2000
   -1.6000    0.0000    0.0000 S   0  0  0  0  0  0  0  0  0  0  0  0
    0.0000    0.0000    0.0000 C   0  0  0  0  0  0  0  0  0  0  0  0
    0.8000    1.3856    0.0000 C   0  0  0  0  0  0  0  0  0  0  0  0
    0.0000    2.7713    0.0000 N   0  0  0  0  0  0  0  0  0  0  0  0
    0.8000    4.1569    0.0000 H   0  0  0  0  0  0  0  0  0  0  0  0
   -1.6000    2.7713    0.0000 H   0  0  0  0  0  0  0  0  0  0  0  0
    2.4000    1.3856    0.0000 C   0  0  0  0  0  0  0  0  0  0  0  0
    3.2001    2.7713    0.0000 H   0  0  0  0  0  0  0  0  0  0  0  0
    3.2001    0.0000    0.0000 C   0  0  0  0  0  0  0  0  0  0  0  0
    4.8000    0.0000    0.0000 H   0  0  0  0  0  0  0  0  0  0  0  0
    2.4000   -1.3856    0.0000 C   0  0  0  0  0  0  0  0  0  0  0  0
    3.2001   -2.7713    0.0000 H   0  0  0  0  0  0  0  0  0  0  0  0
    0.8000   -1.3856    0.0000 C   0  0  0  0  0  0  0  0  0  0  0  0
    0.0000   -2.7713    0.0000 H   0  0  0  0  0  0  0  0  0  0  0  0
   -2.4001   -1.3856    0.0000 C   0  0  0  0  0  0  0  0  0  0  0  0
   -4.0000   -1.3856    0.0000 H   0  0  0  0  0  0  0  0  0  0  0  0
   -3.2000   -2.7713    0.0000 H   0  0  0  0  0  0  0  0  0  0  0  0
   -3.2000    0.0000    0.0000 H   0  0  0  0  0  0  0  0  0  0  0  0
  1  2  1  0  0  0  0
  2  3  1  0  0  0  0
  3  4  1  0  0  0  0
  4  5  1  0  0  0  0
  4  6  1  0  0  0  0
  3  7  2  0  0  0  0
  7  8  1  0  0  0  0
  7  9  1  0  0  0  0
  9 10  1  0  0  0  0
  9 11  2  0  0  0  0
 11 12  1  0  0  0  0
 11 13  1  0  0  0  0
 13  2  2  0  0  0  0
 13 14  1  0  0  0  0
  1 15  1  0  0  0  0
 15 16  1  0  0  0  0
 15 17  1  0  0  0  0
 15 18  1  0  0  0  0
M  END
> <ChemID>
104463

> <source_casrn>
2987-53-3

> <CAS>
2987-53-3

> <SMILES>
CSc1ccccc1N

> <NAME>
O-METHIOANILINE

> <preferred_name>
2-(Methylthio)aniline

> <iupac>
2-methylsulfanylaniline

> <MPID>
23365

> <dsstox_substance_id>
DTXSID80183986

> <Canonical_QSARr>
CSc1ccccc1N

> <InChI_Code_QSARr>
InChI=1S/C7H9NS/c1-9-7-5-3-2-4-6(7)8/h2-5H,8H2,1H3

> <InChI Key_QSARr>
WBRPQQSADOCKCH-UHFFFAOYSA-N

> <Salt_Solvent>
?

> <BP>
234.0

$$$$
104467
  -INDIGO-08031720192D

 20 19  0  0  0  0  0  0  0  0999 V2000
   -2.7712   -3.2000    0.0000 N   0  0  0  0  0  0  0  0  0  0  0  0
   -1.3856   -2.4000    0.0000 C   0  0  0  0  0  0  0  0  0  0  0  0
    0.0001   -1.6000    0.0000 C   0  0  0  0  0  0  0  0  0  0  0  0
    1.5863   -1.8089    0.0000 H   0  0  0  0  0  0  0  0  0  0  0  0
    0.9740   -2.8694    0.0000 H   0  0  0  0  0  0  0  0  0  0  0  0
    0.0001   -0.0000    0.0000 N   0  0  0  0  0  0  0  0  0  0  0  0
   -1.3856    0.8000    0.0000 C   0  0  0  0  0  0  0  0  0  0  0  0
   -1.9979    2.2782    0.0000 H   0  0  0  0  0  0  0  0  0  0  0  0
   -0.7734    2.2782    0.0000 H   0  0  0  0  0  0  0  0  0  0  0  0
   -2.7713   -0.0000    0.0000 C   0  0  0  0  0  0  0  0  0  0  0  0
   -4.1569    0.8000    0.0000 H   0  0  0  0  0  0  0  0  0  0  0  0
   -4.1569   -0.8000    0.0000 H   0  0  0  0  0  0  0  0  0  0  0  0
   -2.7713    1.6000    0.0000 H   0  0  0  0  0  0  0  0  0  0  0  0
    1.3856    0.8000    0.0000 C   0  0  0  0  0  0  0  0  0  0  0  0
    0.7734    2.2782    0.0000 H   0  0  0  0  0  0  0  0  0  0  0  0
    1.9979    2.2782    0.0000 H   0  0  0  0  0  0  0  0  0  0  0  0
    2.7713   -0.0000    0.0000 C   0  0  0  0  0  0  0  0  0  0  0  0
    4.1569   -0.8000    0.0000 H   0  0  0  0  0  0  0  0  0  0  0  0
    4.1569    0.8000    0.0000 H   0  0  0  0  0  0  0  0  0  0  0  0
    2.7713   -1.6000    0.0000 H   0  0  0  0  0  0  0  0  0  0  0  0
  1  2  3  0  0  0  0
  2  3  1  0  0  0  0
  3  4  1  0  0  0  0
  3  5  1  0  0  0  0
  3  6  1  0  0  0  0
  6  7  1  0  0  0  0
  7  8  1  0  0  0  0
  7  9  1  0  0  0  0
  7 10  1  0  0  0  0
 10 11  1  0  0  0  0
 10 12  1  0  0  0  0
 10 13  1  0  0  0  0
  6 14  1  0  0  0  0
 14 15  1  0  0  0  0
 14 16  1  0  0  0  0
 14 17  1  0  0  0  0
 17 18  1  0  0  0  0
 17 19  1  0  0  0  0
 17 20  1  0  0  0  0
M  END
> <ChemID>
104467

> <source_casrn>
3010-02-4

> <CAS>
3010-02-4

> <SMILES>
CCN(CC#N)CC

> <NAME>
Acetonitrile, (diethylamino)-

> <preferred_name>
Acetonitrile, (diethylamino)-

> <iupac>
2-diethylaminoacetonitrile

> <MPID>
23369

> <dsstox_substance_id>
DTXSID8062781

> <Canonical_QSARr>
CCN(CC#N)CC

> <InChI_Code_QSARr>
InChI=1S/C6H12N2/c1-3-8(4-2)6-5-7/h3-4,6H2,1-2H3

> <InChI Key_QSARr>
LVPZSMIBSMMLPI-UHFFFAOYSA-N

> <Salt_Solvent>
?

> <BP>
170.0

$$$$
104471
  -INDIGO-08031720192D

 11 10  0  0  0  0  0  0  0  0999 V2000
    1.3856    0.8000    0.0000 C   0  0  0  0  0  0  0  0  0  0  0  0
    2.7713    1.6000    0.0000 H   0  0  0  0  0  0  0  0  0  0  0  0
    2.7713    0.0000    0.0000 H   0  0  0  0  0  0  0  0  0  0  0  0
    0.0000    0.0000    0.0000 C   0  0  0  0  0  0  0  0  0  0  0  0
    0.6123   -1.4782    0.0000 H   0  0  0  0  0  0  0  0  0  0  0  0
   -1.3856    0.8000    0.0000 C   0  0  0  0  0  0  0  0  0  0  0  0
   -2.7713    1.6000    0.0000 H   0  0  0  0  0  0  0  0  0  0  0  0
   -2.7713    0.0000    0.0000 H   0  0  0  0  0  0  0  0  0  0  0  0
   -1.3856    2.4000    0.0000 H   0  0  0  0  0  0  0  0  0  0  0  0
   -0.6123   -1.4782    0.0000 Cl  0  0  0  0  0  0  0  0  0  0  0  0
    1.3856    2.4000    0.0000 Br  0  0  0  0  0  0  0  0  0  0  0  0
  1  2  1  0  0  0  0
  1  3  1  0  0  0  0
  1  4  1  0  0  0  0
  4  5  1  0  0  0  0
  4  6  1  0  0  0  0
  6  7  1  0  0  0  0
  6  8  1  0  0  0  0
  6  9  1  0  0  0  0
  4 10  1  0  0  0  0
  1 11  1  0  0  0  0
M  END
> <ChemID>
104471

> <source_casrn>
3017-96-7

> <CAS>
NOCAS_871004

> <SMILES>
CC(Cl)CBr

> <NAME>
1-bromo-2-chloropropane

> <preferred_name>


> <iupac>


> <MPID>
23373

> <dsstox_substance_id>
DTXSID90871004

> <Canonical_QSARr>
CC(Cl)CBr

> <InChI_Code_QSARr>
InChI=1S/C3H6BrCl/c1-3(5)2-4/h3H,2H2,1H3

> <InChI Key_QSARr>
YMHXXJJTAGKFBA-UHFFFAOYSA-N

> <Salt_Solvent>
?

> <BP>
118.0

$$$$
104475
  -INDIGO-08031720192D

 17 17  0  0  0  0  0  0  0  0999 V2000
   -1.7813   -2.1229    0.0000 O   0  0  0  0  0  0  0  0  0  0  0  0
   -1.5035   -0.5472    0.0000 C   0  0  0  0  0  0  0  0  0  0  0  0
    0.0000    0.0000    0.0000 C   0  0  0  0  0  0  0  0  0  0  0  0
   -0.7999    1.3856    0.0000 H   0  0  0  0  0  0  0  0  0  0  0  0
    0.8000   -1.3857    0.0000 C   0  0  0  0  0  0  0  0  0  0  0  0
   -0.5856   -2.1856    0.0000 H   0  0  0  0  0  0  0  0  0  0  0  0
    1.6000   -2.7713    0.0000 H   0  0  0  0  0  0  0  0  0  0  0  0
    2.1857   -0.5857    0.0000 C   0  0  0  0  0  0  0  0  0  0  0  0
    2.9856   -1.9713    0.0000 H   0  0  0  0  0  0  0  0  0  0  0  0
    3.5713    0.2144    0.0000 H   0  0  0  0  0  0  0  0  0  0  0  0
    1.3857    0.8000    0.0000 C   0  0  0  0  0  0  0  0  0  0  0  0
    2.7713    1.6000    0.0000 H   0  0  0  0  0  0  0  0  0  0  0  0
    0.5857    2.1856    0.0000 H   0  0  0  0  0  0  0  0  0  0  0  0
   -2.7292    0.4812    0.0000 C   0  0  0  0  0  0  0  0  0  0  0  0
   -3.9549    1.5097    0.0000 H   0  0  0  0  0  0  0  0  0  0  0  0
   -4.2327   -0.0660    0.0000 H   0  0  0  0  0  0  0  0  0  0  0  0
   -2.4514    2.0569    0.0000 H   0  0  0  0  0  0  0  0  0  0  0  0
  1  2  2  0  0  0  0
  2  3  1  0  0  0  0
  3  4  1  0  0  0  0
  3  5  1  0  0  0  0
  5  6  1  0  0  0  0
  5  7  1  0  0  0  0
  5  8  1  0  0  0  0
  8  9  1  0  0  0  0
  8 10  1  0  0  0  0
  8 11  1  0  0  0  0
 11  3  1  0  0  0  0
 11 12  1  0  0  0  0
 11 13  1  0  0  0  0
  2 14  1  0  0  0  0
 14 15  1  0  0  0  0
 14 16  1  0  0  0  0
 14 17  1  0  0  0  0
M  END
> <ChemID>
104475

> <source_casrn>
3019-25-8

> <CAS>
3019-25-8

> <SMILES>
CC(=O)C1CCC1

> <NAME>
ETHANONE, 1-CYCLOBUTYL-

> <preferred_name>
1-Cyclobutylethan-1-one

> <iupac>
1-cyclobutylethanone

> <MPID>
23377

> <dsstox_substance_id>
DTXSID50184263

> <Canonical_QSARr>
CC(=O)C1CCC1

> <InChI_Code_QSARr>
InChI=1S/C6H10O/c1-5(7)6-3-2-4-6/h6H,2-4H2,1H3

> <InChI Key_QSARr>
JPJOOTWNILDNAW-UHFFFAOYSA-N

> <Salt_Solvent>
?

> <BP>
138.0

$$$$
104479
  -INDIGO-08031720192D

  8  8  0  0  0  0  0  0  0  0999 V2000
    0.0000   -0.0000    0.0000 C   0  0  0  0  0  0  0  0  0  0  0  0
    1.4617    0.6508    0.0000 H   0  0  0  0  0  0  0  0  0  0  0  0
   -0.3326   -1.5650    0.0000 C   0  0  0  0  0  0  0  0  0  0  0  0
    0.7380   -2.7541    0.0000 H   0  0  0  0  0  0  0  0  0  0  0  0
   -1.9239   -1.7323    0.0000 S   0  0  0  0  0  0  0  0  0  0  0  0
   -2.5746   -0.2706    0.0000 C   0  0  0  0  0  0  0  0  0  0  0  0
   -4.1397    0.0621    0.0000 Br  0  0  0  0  0  0  0  0  0  0  0  0
   -1.3856    0.8000    0.0000 N   0  0  0  0  0  0  0  0  0  0  0  0
  1  2  1  0  0  0  0
  1  3  2  0  0  0  0
  3  4  1  0  0  0  0
  3  5  1  0  0  0  0
  5  6  1  0  0  0  0
  6  7  1  0  0  0  0
  6  8  2  0  0  0  0
  8  1  1  0  0  0  0
M  END
> <ChemID>
104479

> <source_casrn>
3034-53-5

> <CAS>
3034-53-5

> <SMILES>
Brc1[n]cc[s]1

> <NAME>
Thiazole, 2-bromo-

> <preferred_name>
Thiazole, 2-bromo-

> <iupac>
2-Bromo-1,3-thiazole

> <MPID>
23381

> <dsstox_substance_id>
DTXSID9062805

> <Canonical_QSARr>
Brc1[n]cc[s]1

> <InChI_Code_QSARr>
InChI=1S/C3H2BrNS/c4-3-5-1-2-6-3/h1-2H

> <InChI Key_QSARr>
RXNZFHIEDZEUQM-UHFFFAOYSA-N

> <Salt_Solvent>
?

> <BP>
171.0

$$$$
104483
  -INDIGO-08031720192D

 21 22  0  0  0  0  0  0  0  0999 V2000
    1.2339   -0.7643    0.0000 C   0  0  0  0  0  0  0  0  0  0  0  0
    2.0895    0.5878    0.0000 H   0  0  0  0  0  0  0  0  0  0  0  0
    0.3280   -2.1364    0.0000 C   0  0  0  0  0  0  0  0  0  0  0  0
    1.6865   -2.9817    0.0000 H   0  0  0  0  0  0  0  0  0  0  0  0
   -0.4806   -3.5170    0.0000 H   0  0  0  0  0  0  0  0  0  0  0  0
   -1.0822   -1.3607    0.0000 C   0  0  0  0  0  0  0  0  0  0  0  0
   -1.2640   -2.9502    0.0000 H   0  0  0  0  0  0  0  0  0  0  0  0
   -2.5466   -1.7739    0.0000 C   0  0  0  0  0  0  0  0  0  0  0  0
   -2.7658   -3.3589    0.0000 H   0  0  0  0  0  0  0  0  0  0  0  0
   -3.9107   -0.9378    0.0000 H   0  0  0  0  0  0  0  0  0  0  0  0
    0.0000   -0.0000    0.0000 C   0  0  0  0  0  0  0  0  0  0  0  0
    1.1508    1.1116    0.0000 H   0  0  0  0  0  0  0  0  0  0  0  0
   -0.2722    1.5766    0.0000 C   0  0  0  0  0  0  0  0  0  0  0  0
    0.0825    3.1369    0.0000 H   0  0  0  0  0  0  0  0  0  0  0  0
   -1.1466    0.3465    0.0000 C   0  0  0  0  0  0  0  0  0  0  0  0
   -2.6797    0.8042    0.0000 H   0  0  0  0  0  0  0  0  0  0  0  0
    2.7080   -1.3863    0.0000 C   0  0  0  0  0  0  0  0  0  0  0  0
    2.9063   -2.9740    0.0000 H   0  0  0  0  0  0  0  0  0  0  0  0
    3.9838   -0.4208    0.0000 C   0  0  0  0  0  0  0  0  0  0  0  0
    5.4579   -1.0429    0.0000 H   0  0  0  0  0  0  0  0  0  0  0  0
    3.7855    1.1669    0.0000 H   0  0  0  0  0  0  0  0  0  0  0  0
  1  2  1  0  0  0  0
  1  3  1  0  0  0  0
  3  4  1  0  0  0  0
  3  5  1  0  0  0  0
  3  6  1  0  0  0  0
  6  7  1  0  0  0  0
  6  8  1  0  0  0  0
  8  9  1  0  0  0  0
  8 10  1  0  0  0  0
  8 11  1  0  0  0  0
 11  1  1  0  0  0  0
 11 12  1  0  0  0  0
 11 13  1  0  0  0  0
 13 14  1  0  0  0  0
 13 15  2  0  0  0  0
 15  6  1  0  0  0  0
 15 16  1  0  0  0  0
  1 17  1  0  0  0  0
 17 18  1  0  0  0  0
 17 19  2  0  0  0  0
 19 20  1  0  0  0  0
 19 21  1  0  0  0  0
M  END
> <ChemID>
104483

> <source_casrn>
3048-64-4

> <CAS>
3048-64-4

> <SMILES>
C=CC1CC2CC1C=C2

> <NAME>
Vinylnorbornene

> <preferred_name>
5-Vinyl-2-norbornene

> <iupac>
5-ethenylbicyclo[2.2.1]hept-2-ene

> <MPID>
23385

> <dsstox_substance_id>
DTXSID6029250

> <Canonical_QSARr>
C=CC1CC2CC1C=C2

> <InChI_Code_QSARr>
InChI=1S/C9H12/c1-2-8-5-7-3-4-9(8)6-7/h2-4,7-9H,1,5-6H2

> <InChI Key_QSARr>
INYHZQLKOKTDAI-UHFFFAOYSA-N

> <Salt_Solvent>
?

> <BP>
140.5

$$$$
104487
  -INDIGO-08031720192D

 27 27  0  0  0  0  0  0  0  0999 V2000
    0.0000    0.0000    0.0000 C   0  0  0  0  0  0  0  0  0  0  0  0
    1.3857    0.8000    0.0000 C   0  0  0  0  0  0  0  0  0  0  0  0
    0.3572    2.0257    0.0000 H   0  0  0  0  0  0  0  0  0  0  0  0
    2.4141    2.0257    0.0000 H   0  0  0  0  0  0  0  0  0  0  0  0
    2.7713    0.0000    0.0000 C   0  0  0  0  0  0  0  0  0  0  0  0
    3.3185    1.5035    0.0000 H   0  0  0  0  0  0  0  0  0  0  0  0
    4.3470    0.2778    0.0000 C   0  0  0  0  0  0  0  0  0  0  0  0
    5.9227    0.5556    0.0000 H   0  0  0  0  0  0  0  0  0  0  0  0
    5.3755   -0.9478    0.0000 H   0  0  0  0  0  0  0  0  0  0  0  0
    4.8942    1.7814    0.0000 H   0  0  0  0  0  0  0  0  0  0  0  0
    2.7713   -1.6000    0.0000 C   0  0  0  0  0  0  0  0  0  0  0  0
    4.3470   -1.3222    0.0000 H   0  0  0  0  0  0  0  0  0  0  0  0
    3.3185   -3.1035    0.0000 H   0  0  0  0  0  0  0  0  0  0  0  0
    1.3856   -2.4000    0.0000 C   0  0  0  0  0  0  0  0  0  0  0  0
    2.4141   -3.6257    0.0000 H   0  0  0  0  0  0  0  0  0  0  0  0
    0.3572   -3.6257    0.0000 H   0  0  0  0  0  0  0  0  0  0  0  0
    0.0000   -1.6000    0.0000 C   0  0  0  0  0  0  0  0  0  0  0  0
   -0.5472   -3.1035    0.0000 H   0  0  0  0  0  0  0  0  0  0  0  0
   -1.5757   -1.3222    0.0000 H   0  0  0  0  0  0  0  0  0  0  0  0
   -1.5757   -0.2778    0.0000 C   0  0  0  0  0  0  0  0  0  0  0  0
   -3.1514   -0.5557    0.0000 H   0  0  0  0  0  0  0  0  0  0  0  0
   -2.6042    0.9478    0.0000 H   0  0  0  0  0  0  0  0  0  0  0  0
   -2.6042   -1.5035    0.0000 H   0  0  0  0  0  0  0  0  0  0  0  0
   -0.5472    1.5035    0.0000 C   0  0  0  0  0  0  0  0  0  0  0  0
   -1.0944    3.0070    0.0000 H   0  0  0  0  0  0  0  0  0  0  0  0
   -2.1229    1.7814    0.0000 H   0  0  0  0  0  0  0  0  0  0  0  0
    0.0000    3.0070    0.0000 H   0  0  0  0  0  0  0  0  0  0  0  0
  1  2  1  0  0  0  0
  2  3  1  0  0  0  0
  2  4  1  0  0  0  0
  2  5  1  0  0  0  0
  5  6  1  0  0  0  0
  5  7  1  0  0  0  0
  7  8  1  0  0  0  0
  7  9  1  0  0  0  0
  7 10  1  0  0  0  0
  5 11  1  0  0  0  0
 11 12  1  0  0  0  0
 11 13  1  0  0  0  0
 11 14  1  0  0  0  0
 14 15  1  0  0  0  0
 14 16  1  0  0  0  0
 14 17  1  0  0  0  0
 17  1  1  0  0  0  0
 17 18  1  0  0  0  0
 17 19  1  0  0  0  0
  1 20  1  0  0  0  0
 20 21  1  0  0  0  0
 20 22  1  0  0  0  0
 20 23  1  0  0  0  0
  1 24  1  0  0  0  0
 24 25  1  0  0  0  0
 24 26  1  0  0  0  0
 24 27  1  0  0  0  0
M  END
> <ChemID>
104487

> <source_casrn>
3073-66-3

> <CAS>
3073-66-3

> <SMILES>
CC1CC(C)(C)CCC1

> <NAME>
1,1,3-TRIMETHYLCYCLOHEXANE

> <preferred_name>
1,1,3-Trimethylcyclohexane

> <iupac>
C9H18

> <MPID>
23389

> <dsstox_substance_id>
DTXSID60858746

> <Canonical_QSARr>
CC1CC(C)(C)CCC1

> <InChI_Code_QSARr>
InChI=1S/C9H18/c1-8-5-4-6-9(2,3)7-8/h8H,4-7H2,1-3H3

> <InChI Key_QSARr>
PYOLJOJPIPCRDP-UHFFFAOYSA-N

> <Salt_Solvent>
?

> <BP>
136.6

$$$$
104491
  -INDIGO-08031720192D

 29 28  0  0  0  0  0  0  0  0999 V2000
   -0.0001   -0.0000    0.0000 C   0  0  0  0  0  0  0  0  0  0  0  0
   -0.8000   -1.3857    0.0000 C   0  0  0  0  0  0  0  0  0  0  0  0
    0.4693   -2.3597    0.0000 H   0  0  0  0  0  0  0  0  0  0  0  0
   -0.5912   -2.9720    0.0000 H   0  0  0  0  0  0  0  0  0  0  0  0
   -2.3757   -1.6634    0.0000 C   0  0  0  0  0  0  0  0  0  0  0  0
   -3.4567   -2.8431    0.0000 H   0  0  0  0  0  0  0  0  0  0  0  0
   -2.3059   -3.2620    0.0000 H   0  0  0  0  0  0  0  0  0  0  0  0
   -3.7613   -0.8634    0.0000 C   0  0  0  0  0  0  0  0  0  0  0  0
   -5.1470   -0.0635    0.0000 H   0  0  0  0  0  0  0  0  0  0  0  0
   -3.7613    0.7365    0.0000 H   0  0  0  0  0  0  0  0  0  0  0  0
   -5.1470   -1.6634    0.0000 H   0  0  0  0  0  0  0  0  0  0  0  0
    0.8000    1.3856    0.0000 C   0  0  0  0  0  0  0  0  0  0  0  0
   -0.4693    2.3596    0.0000 H   0  0  0  0  0  0  0  0  0  0  0  0
    0.5911    2.9719    0.0000 H   0  0  0  0  0  0  0  0  0  0  0  0
    2.3756    1.6635    0.0000 C   0  0  0  0  0  0  0  0  0  0  0  0
    3.9514    1.9413    0.0000 H   0  0  0  0  0  0  0  0  0  0  0  0
    2.9229    3.1670    0.0000 H   0  0  0  0  0  0  0  0  0  0  0  0
    3.4041    0.4378    0.0000 H   0  0  0  0  0  0  0  0  0  0  0  0
    1.3856   -0.8000    0.0000 C   0  0  0  0  0  0  0  0  0  0  0  0
    2.3597    0.4693    0.0000 H   0  0  0  0  0  0  0  0  0  0  0  0
    2.9719   -0.5911    0.0000 H   0  0  0  0  0  0  0  0  0  0  0  0
    1.6634   -2.3756    0.0000 C   0  0  0  0  0  0  0  0  0  0  0  0
    1.9414   -3.9514    0.0000 H   0  0  0  0  0  0  0  0  0  0  0  0
    3.1670   -2.9230    0.0000 H   0  0  0  0  0  0  0  0  0  0  0  0
    0.4378   -3.4042    0.0000 H   0  0  0  0  0  0  0  0  0  0  0  0
   -1.3856    0.8000    0.0000 C   0  0  0  0  0  0  0  0  0  0  0  0
   -2.7713    1.6000    0.0000 H   0  0  0  0  0  0  0  0  0  0  0  0
   -1.6635    2.3757    0.0000 H   0  0  0  0  0  0  0  0  0  0  0  0
   -2.7713   -0.0000    0.0000 H   0  0  0  0  0  0  0  0  0  0  0  0
  1  2  1  0  0  0  0
  2  3  1  0  0  0  0
  2  4  1  0  0  0  0
  2  5  1  0  0  0  0
  5  6  1  0  0  0  0
  5  7  1  0  0  0  0
  5  8  1  0  0  0  0
  8  9  1  0  0  0  0
  8 10  1  0  0  0  0
  8 11  1  0  0  0  0
  1 12  1  0  0  0  0
 12 13  1  0  0  0  0
 12 14  1  0  0  0  0
 12 15  1  0  0  0  0
 15 16  1  0  0  0  0
 15 17  1  0  0  0  0
 15 18  1  0  0  0  0
  1 19  1  0  0  0  0
 19 20  1  0  0  0  0
 19 21  1  0  0  0  0
 19 22  1  0  0  0  0
 22 23  1  0  0  0  0
 22 24  1  0  0  0  0
 22 25  1  0  0  0  0
  1 26  1  0  0  0  0
 26 27  1  0  0  0  0
 26 28  1  0  0  0  0
 26 29  1  0  0  0  0
M  END
> <ChemID>
104491

> <source_casrn>
3074-76-8

> <CAS>
3074-76-8

> <SMILES>
CCCC(C)(CC)CC

> <NAME>
HEXANE, 3-ETHYL-3-METHYL-

> <preferred_name>
Hexane, 3-ethyl-3-methyl-

> <iupac>
3-ETHYL-3-METHYLHEXANE

> <MPID>
23393

> <dsstox_substance_id>
DTXSID30184766

> <Canonical_QSARr>
CCCC(C)(CC)CC

> <InChI_Code_QSARr>
InChI=1S/C9H20/c1-5-8-9(4,6-2)7-3/h5-8H2,1-4H3

> <InChI Key_QSARr>
CYWROHZCELEGSE-UHFFFAOYSA-N

> <Salt_Solvent>
?

> <BP>
140.6

$$$$
104495
  -INDIGO-08031720192D

 19 19  0  0  0  0  0  0  0  0999 V2000
    5.5426   -1.6000    0.0000 O   0  0  0  0  0  0  0  0  0  0  0  0
    5.5426   -0.0000    0.0000 C   0  0  0  0  0  0  0  0  0  0  0  0
    6.9282    0.8000    0.0000 H   0  0  0  0  0  0  0  0  0  0  0  0
    4.1570    0.8000    0.0000 N   0  0  0  0  0  0  0  0  0  0  0  0
    4.1570    2.4000    0.0000 H   0  0  0  0  0  0  0  0  0  0  0  0
    2.7713   -0.0000    0.0000 C   0  0  0  0  0  0  0  0  0  0  0  0
    1.3856    0.8000    0.0000 C   0  0  0  0  0  0  0  0  0  0  0  0
    1.3856    2.4000    0.0000 H   0  0  0  0  0  0  0  0  0  0  0  0
   -0.0000   -0.0000    0.0000 C   0  0  0  0  0  0  0  0  0  0  0  0
   -1.3857    0.8000    0.0000 C   0  0  0  0  0  0  0  0  0  0  0  0
   -2.7713    1.6000    0.0000 H   0  0  0  0  0  0  0  0  0  0  0  0
   -2.7713   -0.0000    0.0000 H   0  0  0  0  0  0  0  0  0  0  0  0
   -1.3857    2.4000    0.0000 H   0  0  0  0  0  0  0  0  0  0  0  0
   -0.0000   -1.6000    0.0000 C   0  0  0  0  0  0  0  0  0  0  0  0
   -1.3857   -2.4000    0.0000 H   0  0  0  0  0  0  0  0  0  0  0  0
    1.3856   -2.4000    0.0000 C   0  0  0  0  0  0  0  0  0  0  0  0
    1.3856   -4.0000    0.0000 H   0  0  0  0  0  0  0  0  0  0  0  0
    2.7713   -1.6000    0.0000 C   0  0  0  0  0  0  0  0  0  0  0  0
    4.1570   -2.4000    0.0000 H   0  0  0  0  0  0  0  0  0  0  0  0
  1  2  2  0  0  0  0
  2  3  1  0  0  0  0
  2  4  1  0  0  0  0
  4  5  1  0  0  0  0
  4  6  1  0  0  0  0
  6  7  1  0  0  0  0
  7  8  1  0  0  0  0
  7  9  2  0  0  0  0
  9 10  1  0  0  0  0
 10 11  1  0  0  0  0
 10 12  1  0  0  0  0
 10 13  1  0  0  0  0
  9 14  1  0  0  0  0
 14 15  1  0  0  0  0
 14 16  2  0  0  0  0
 16 17  1  0  0  0  0
 16 18  1  0  0  0  0
 18  6  2  0  0  0  0
 18 19  1  0  0  0  0
M  END
> <ChemID>
104495

> <source_casrn>
3085-53-8

> <CAS>
3085-53-8

> <SMILES>
Cc1cc(ccc1)NC=O

> <NAME>
N-m-Tolyl-formamide

> <preferred_name>
3'-Methylformanilide

> <iupac>
N-(3-methylphenyl)formamide

> <MPID>
23397

> <dsstox_substance_id>
DTXSID90184863

> <Canonical_QSARr>
Cc1cc(ccc1)NC=O

> <InChI_Code_QSARr>
InChI=1S/C8H9NO/c1-7-3-2-4-8(5-7)9-6-10/h2-6H,1H3,(H,9,10)

> <InChI Key_QSARr>
JPXIYUADQNFRCK-UHFFFAOYSA-N

> <Salt_Solvent>
?

> <BP>
290.0

$$$$
104500
  -INDIGO-08031720192D

  9  9  0  0  0  0  0  0  0  0999 V2000
   -0.6508    1.4617    0.0000 Br  0  0  0  0  0  0  0  0  0  0  0  0
   -0.0000    0.0000    0.0000 C   0  0  0  0  0  0  0  0  0  0  0  0
    1.5650   -0.3327    0.0000 C   0  0  0  0  0  0  0  0  0  0  0  0
    2.7541    0.7379    0.0000 H   0  0  0  0  0  0  0  0  0  0  0  0
    1.7323   -1.9239    0.0000 C   0  0  0  0  0  0  0  0  0  0  0  0
    3.1179   -2.7239    0.0000 H   0  0  0  0  0  0  0  0  0  0  0  0
    0.2706   -2.5747    0.0000 S   0  0  0  0  0  0  0  0  0  0  0  0
   -0.8000   -1.3856    0.0000 C   0  0  0  0  0  0  0  0  0  0  0  0
   -2.3912   -1.5529    0.0000 Br  0  0  0  0  0  0  0  0  0  0  0  0
  1  2  1  0  0  0  0
  2  3  1  0  0  0  0
  3  4  1  0  0  0  0
  3  5  2  0  0  0  0
  5  6  1  0  0  0  0
  5  7  1  0  0  0  0
  7  8  1  0  0  0  0
  8  2  2  0  0  0  0
  8  9  1  0  0  0  0
M  END
> <ChemID>
104500

> <source_casrn>
3140-93-0

> <CAS>
3140-93-0

> <SMILES>
Brc1cc[s]c1Br

> <NAME>
THIOPHENE, 2,3-DIBROMO-

> <preferred_name>
2,3-Dibromothiophene

> <iupac>
2,3-Dibromothiophene

> <MPID>
23402

> <dsstox_substance_id>
DTXSID80185324

> <Canonical_QSARr>
Brc1cc[s]c1Br

> <InChI_Code_QSARr>
InChI=1S/C4H2Br2S/c5-3-1-2-7-4(3)6/h1-2H

> <InChI Key_QSARr>
ATRJNSFQBYKFSM-UHFFFAOYSA-N

> <Salt_Solvent>
?

> <BP>
218.5

$$$$
104504
  -INDIGO-08031720192D

  9  9  0  0  0  0  0  0  0  0999 V2000
   -0.8000    1.3856    0.0000 C   0  0  0  0  0  0  0  0  0  0  0  0
    0.2706    2.5747    0.0000 S   0  0  0  0  0  0  0  0  0  0  0  0
    1.7323    1.9239    0.0000 C   0  0  0  0  0  0  0  0  0  0  0  0
    3.1179    2.7239    0.0000 Br  0  0  0  0  0  0  0  0  0  0  0  0
    1.5650    0.3327    0.0000 C   0  0  0  0  0  0  0  0  0  0  0  0
    2.7541   -0.7379    0.0000 H   0  0  0  0  0  0  0  0  0  0  0  0
   -0.0000    0.0000    0.0000 C   0  0  0  0  0  0  0  0  0  0  0  0
   -0.6508   -1.4617    0.0000 H   0  0  0  0  0  0  0  0  0  0  0  0
   -2.3912    1.5529    0.0000 Br  0  0  0  0  0  0  0  0  0  0  0  0
  1  2  1  0  0  0  0
  2  3  1  0  0  0  0
  3  4  1  0  0  0  0
  3  5  2  0  0  0  0
  5  6  1  0  0  0  0
  5  7  1  0  0  0  0
  7  1  2  0  0  0  0
  7  8  1  0  0  0  0
  1  9  1  0  0  0  0
M  END
> <ChemID>
104504

> <source_casrn>
3141-27-3

> <CAS>
3141-27-3

> <SMILES>
Brc1ccc(Br)[s]1

> <NAME>
2,5-DIBROMOTHIOPHENE

> <preferred_name>
Thiophene, 2,5-dibromo-

> <iupac>
2,5-Dibromothiophene

> <MPID>
23406

> <dsstox_substance_id>
DTXSID3062863

> <Canonical_QSARr>
Brc1ccc(Br)[s]1

> <InChI_Code_QSARr>
InChI=1S/C4H2Br2S/c5-3-1-2-4(6)7-3/h1-2H

> <InChI Key_QSARr>
KBVDUUXRXJTAJC-UHFFFAOYSA-N

> <Salt_Solvent>
?

> <BP>
210.3

$$$$
104509
  -INDIGO-08031720192D

  9  9  0  0  0  0  0  0  0  0999 V2000
   -0.8000    1.3856    0.0000 C   0  0  0  0  0  0  0  0  0  0  0  0
    0.2706    2.5747    0.0000 S   0  0  0  0  0  0  0  0  0  0  0  0
    1.7323    1.9239    0.0000 C   0  0  0  0  0  0  0  0  0  0  0  0
    3.1179    2.7239    0.0000 Cl  0  0  0  0  0  0  0  0  0  0  0  0
    1.5650    0.3327    0.0000 C   0  0  0  0  0  0  0  0  0  0  0  0
    2.7541   -0.7379    0.0000 H   0  0  0  0  0  0  0  0  0  0  0  0
   -0.0000    0.0000    0.0000 C   0  0  0  0  0  0  0  0  0  0  0  0
   -0.6508   -1.4617    0.0000 H   0  0  0  0  0  0  0  0  0  0  0  0
   -2.3912    1.5529    0.0000 Cl  0  0  0  0  0  0  0  0  0  0  0  0
  1  2  1  0  0  0  0
  2  3  1  0  0  0  0
  3  4  1  0  0  0  0
  3  5  2  0  0  0  0
  5  6  1  0  0  0  0
  5  7  1  0  0  0  0
  7  1  2  0  0  0  0
  7  8  1  0  0  0  0
  1  9  1  0  0  0  0
M  END
> <ChemID>
104509

> <source_casrn>
3172-52-9

> <CAS>
3172-52-9

> <SMILES>
Clc1ccc(Cl)[s]1

> <NAME>
2,5-DICHLOROTHIOPHENE

> <preferred_name>
Thiophene, 2,5-dichloro-

> <iupac>
2,5-Dichlorothiophene

> <MPID>
23410

> <dsstox_substance_id>
DTXSID6062888

> <Canonical_QSARr>
Clc1ccc(Cl)[s]1

> <InChI_Code_QSARr>
InChI=1S/C4H2Cl2S/c5-3-1-2-4(6)7-3/h1-2H

> <InChI Key_QSARr>
FGYBDASKYMSNCX-UHFFFAOYSA-N

> <Salt_Solvent>
?

> <BP>
162.0

$$$$
104513
  -INDIGO-08031720192D

 11 10  0  0  0  0  0  0  0  0999 V2000
    0.0000    0.0000    0.0000 C   0  0  0  0  0  0  0  0  0  0  0  0
    1.3856    0.8000    0.0000 C   0  0  0  0  0  0  0  0  0  0  0  0
    2.7713    1.6000    0.0000 H   0  0  0  0  0  0  0  0  0  0  0  0
    2.7713    0.0000    0.0000 H   0  0  0  0  0  0  0  0  0  0  0  0
    1.3856    2.4000    0.0000 Cl  0  0  0  0  0  0  0  0  0  0  0  0
   -1.3856    0.8000    0.0000 C   0  0  0  0  0  0  0  0  0  0  0  0
   -2.7713    1.6000    0.0000 H   0  0  0  0  0  0  0  0  0  0  0  0
   -2.7713    0.0000    0.0000 H   0  0  0  0  0  0  0  0  0  0  0  0
   -1.3856    2.4000    0.0000 H   0  0  0  0  0  0  0  0  0  0  0  0
   -0.6123   -1.4782    0.0000 Cl  0  0  0  0  0  0  0  0  0  0  0  0
    0.6123   -1.4782    0.0000 Cl  0  0  0  0  0  0  0  0  0  0  0  0
  1  2  1  0  0  0  0
  2  3  1  0  0  0  0
  2  4  1  0  0  0  0
  2  5  1  0  0  0  0
  1  6  1  0  0  0  0
  6  7  1  0  0  0  0
  6  8  1  0  0  0  0
  6  9  1  0  0  0  0
  1 10  1  0  0  0  0
  1 11  1  0  0  0  0
M  END
> <ChemID>
104513

> <source_casrn>
3175-23-3

> <CAS>
3175-23-3

> <SMILES>
CC(Cl)(Cl)CCl

> <NAME>
1,2,2-TRICHLOROPROPANE

> <preferred_name>
Propane, 1,2,2-trichloro-

> <iupac>
1,2,2-TRICHLOROPROPANE

> <MPID>
23414

> <dsstox_substance_id>
DTXSID0062890

> <Canonical_QSARr>
CC(Cl)(Cl)CCl

> <InChI_Code_QSARr>
InChI=1S/C3H5Cl3/c1-3(5,6)2-4/h2H2,1H3

> <InChI Key_QSARr>
DAIIXVPKQATIMF-UHFFFAOYSA-N

> <Salt_Solvent>
?

> <BP>
124.0

$$$$
104517
  -INDIGO-08031720192D

 20 19  0  0  0  0  0  0  0  0999 V2000
    4.1569    0.8000    0.0000 O   0  0  0  0  0  0  0  0  0  0  0  0
    5.5426   -0.0000    0.0000 H   0  0  0  0  0  0  0  0  0  0  0  0
    2.7713   -0.0000    0.0000 C   0  0  0  0  0  0  0  0  0  0  0  0
    3.3836   -1.4782    0.0000 H   0  0  0  0  0  0  0  0  0  0  0  0
    2.1590   -1.4782    0.0000 H   0  0  0  0  0  0  0  0  0  0  0  0
    1.3857    0.8000    0.0000 C   0  0  0  0  0  0  0  0  0  0  0  0
    0.7734    2.2782    0.0000 H   0  0  0  0  0  0  0  0  0  0  0  0
    1.9980    2.2782    0.0000 H   0  0  0  0  0  0  0  0  0  0  0  0
   -0.0001   -0.0000    0.0000 C   0  0  0  0  0  0  0  0  0  0  0  0
    0.6122   -1.4782    0.0000 H   0  0  0  0  0  0  0  0  0  0  0  0
   -0.6124   -1.4782    0.0000 H   0  0  0  0  0  0  0  0  0  0  0  0
   -1.3857    0.8000    0.0000 N   0  0  0  0  0  0  0  0  0  0  0  0
   -2.7713   -0.0000    0.0000 C   0  0  0  0  0  0  0  0  0  0  0  0
   -4.1569   -0.8000    0.0000 H   0  0  0  0  0  0  0  0  0  0  0  0
   -4.1569    0.8000    0.0000 H   0  0  0  0  0  0  0  0  0  0  0  0
   -2.7713   -1.6000    0.0000 H   0  0  0  0  0  0  0  0  0  0  0  0
   -1.3857    2.4000    0.0000 C   0  0  0  0  0  0  0  0  0  0  0  0
   -1.3857    4.0000    0.0000 H   0  0  0  0  0  0  0  0  0  0  0  0
   -2.7713    3.2000    0.0000 H   0  0  0  0  0  0  0  0  0  0  0  0
   -0.0001    3.2000    0.0000 H   0  0  0  0  0  0  0  0  0  0  0  0
  1  2  1  0  0  0  0
  1  3  1  0  0  0  0
  3  4  1  0  0  0  0
  3  5  1  0  0  0  0
  3  6  1  0  0  0  0
  6  7  1  0  0  0  0
  6  8  1  0  0  0  0
  6  9  1  0  0  0  0
  9 10  1  0  0  0  0
  9 11  1  0  0  0  0
  9 12  1  0  0  0  0
 12 13  1  0  0  0  0
 13 14  1  0  0  0  0
 13 15  1  0  0  0  0
 13 16  1  0  0  0  0
 12 17  1  0  0  0  0
 17 18  1  0  0  0  0
 17 19  1  0  0  0  0
 17 20  1  0  0  0  0
M  END
> <ChemID>
104517

> <source_casrn>
3179-63-3

> <CAS>
3179-63-3

> <SMILES>
CN(C)CCCO

> <NAME>
1-Propanol, 3-(dimethylamino)-

> <preferred_name>
1-Propanol, 3-(dimethylamino)-

> <iupac>
3-Dimethylaminopropan-1-ol

> <MPID>
23418

> <dsstox_substance_id>
DTXSID5062895

> <Canonical_QSARr>
CN(C)CCCO

> <InChI_Code_QSARr>
InChI=1S/C5H13NO/c1-6(2)4-3-5-7/h7H,3-5H2,1-2H3

> <InChI Key_QSARr>
PYSGFFTXMUWEOT-UHFFFAOYSA-N

> <Salt_Solvent>
?

> <BP>
163.5

$$$$
104521
  -INDIGO-08031720192D

 17 16  0  0  0  0  0  0  0  0999 V2000
    2.7713    0.0000    0.0000 C   0  0  0  0  0  0  0  0  0  0  0  0
    2.7713   -1.6000    0.0000 O   0  0  0  0  0  0  0  0  0  0  0  0
    4.1570    0.8000    0.0000 O   0  0  0  0  0  0  0  0  0  0  0  0
    5.5426    0.0000    0.0000 C   0  0  0  0  0  0  0  0  0  0  0  0
    6.9282   -0.8000    0.0000 H   0  0  0  0  0  0  0  0  0  0  0  0
    6.9282    0.8000    0.0000 H   0  0  0  0  0  0  0  0  0  0  0  0
    5.5426   -1.6000    0.0000 H   0  0  0  0  0  0  0  0  0  0  0  0
    1.3856    0.8000    0.0000 C   0  0  0  0  0  0  0  0  0  0  0  0
    0.7733    2.2782    0.0000 H   0  0  0  0  0  0  0  0  0  0  0  0
   -0.0000    0.0000    0.0000 C   0  0  0  0  0  0  0  0  0  0  0  0
    0.6123   -1.4782    0.0000 H   0  0  0  0  0  0  0  0  0  0  0  0
   -0.6123   -1.4782    0.0000 H   0  0  0  0  0  0  0  0  0  0  0  0
   -1.3857    0.8000    0.0000 C   0  0  0  0  0  0  0  0  0  0  0  0
   -2.7713    1.6000    0.0000 H   0  0  0  0  0  0  0  0  0  0  0  0
   -2.7713    0.0000    0.0000 H   0  0  0  0  0  0  0  0  0  0  0  0
   -1.3857    2.4000    0.0000 H   0  0  0  0  0  0  0  0  0  0  0  0
    1.9979    2.2782    0.0000 Br  0  0  0  0  0  0  0  0  0  0  0  0
  1  2  2  0  0  0  0
  1  3  1  0  0  0  0
  3  4  1  0  0  0  0
  4  5  1  0  0  0  0
  4  6  1  0  0  0  0
  4  7  1  0  0  0  0
  1  8  1  0  0  0  0
  8  9  1  0  0  0  0
  8 10  1  0  0  0  0
 10 11  1  0  0  0  0
 10 12  1  0  0  0  0
 10 13  1  0  0  0  0
 13 14  1  0  0  0  0
 13 15  1  0  0  0  0
 13 16  1  0  0  0  0
  8 17  1  0  0  0  0
M  END
> <ChemID>
104521

> <source_casrn>
3196-15-4

> <CAS>
NOCAS_863122

> <SMILES>
CCC(Br)C(=O)OC

> <NAME>
Butanoic acid, 2-bromo-, methyl ester

> <preferred_name>


> <iupac>


> <MPID>
23422

> <dsstox_substance_id>
DTXSID50863122

> <Canonical_QSARr>
CCC(Br)C(=O)OC

> <InChI_Code_QSARr>
InChI=1S/C5H9BrO2/c1-3-4(6)5(7)8-2/h4H,3H2,1-2H3

> <InChI Key_QSARr>
UFQQDNMQADCHGH-UHFFFAOYSA-N

> <Salt_Solvent>
?

> <BP>
168.0

$$$$
104525
  -INDIGO-08031720192D

 23 23  0  0  0  0  0  0  0  0999 V2000
    2.7291    0.4812    0.0000 N   0  0  0  0  0  0  0  0  0  0  0  0
    3.9549    1.5097    0.0000 H   0  0  0  0  0  0  0  0  0  0  0  0
    3.0070   -1.0945    0.0000 H   0  0  0  0  0  0  0  0  0  0  0  0
    1.2257    1.0285    0.0000 C   0  0  0  0  0  0  0  0  0  0  0  0
    0.3659    2.3779    0.0000 H   0  0  0  0  0  0  0  0  0  0  0  0
    1.5720    2.5905    0.0000 H   0  0  0  0  0  0  0  0  0  0  0  0
   -0.0000   -0.0000    0.0000 C   0  0  0  0  0  0  0  0  0  0  0  0
    1.2257   -1.0285    0.0000 H   0  0  0  0  0  0  0  0  0  0  0  0
   -0.8001    1.3857    0.0000 C   0  0  0  0  0  0  0  0  0  0  0  0
    0.7757    1.6635    0.0000 H   0  0  0  0  0  0  0  0  0  0  0  0
   -1.0778    2.9613    0.0000 H   0  0  0  0  0  0  0  0  0  0  0  0
   -2.3999    1.3857    0.0000 C   0  0  0  0  0  0  0  0  0  0  0  0
   -2.1222    2.9613    0.0000 H   0  0  0  0  0  0  0  0  0  0  0  0
   -3.9035    1.9329    0.0000 H   0  0  0  0  0  0  0  0  0  0  0  0
   -3.2000   -0.0000    0.0000 C   0  0  0  0  0  0  0  0  0  0  0  0
   -4.4257    1.0285    0.0000 H   0  0  0  0  0  0  0  0  0  0  0  0
   -4.4257   -1.0285    0.0000 H   0  0  0  0  0  0  0  0  0  0  0  0
   -2.3999   -1.3857    0.0000 C   0  0  0  0  0  0  0  0  0  0  0  0
   -3.9035   -1.9329    0.0000 H   0  0  0  0  0  0  0  0  0  0  0  0
   -2.1222   -2.9613    0.0000 H   0  0  0  0  0  0  0  0  0  0  0  0
   -0.8001   -1.3857    0.0000 C   0  0  0  0  0  0  0  0  0  0  0  0
   -1.0778   -2.9613    0.0000 H   0  0  0  0  0  0  0  0  0  0  0  0
    0.7035   -1.9329    0.0000 H   0  0  0  0  0  0  0  0  0  0  0  0
  1  2  1  0  0  0  0
  1  3  1  0  0  0  0
  1  4  1  0  0  0  0
  4  5  1  0  0  0  0
  4  6  1  0  0  0  0
  4  7  1  0  0  0  0
  7  8  1  0  0  0  0
  7  9  1  0  0  0  0
  9 10  1  0  0  0  0
  9 11  1  0  0  0  0
  9 12  1  0  0  0  0
 12 13  1  0  0  0  0
 12 14  1  0  0  0  0
 12 15  1  0  0  0  0
 15 16  1  0  0  0  0
 15 17  1  0  0  0  0
 15 18  1  0  0  0  0
 18 19  1  0  0  0  0
 18 20  1  0  0  0  0
 18 21  1  0  0  0  0
 21  7  1  0  0  0  0
 21 22  1  0  0  0  0
 21 23  1  0  0  0  0
M  END
> <ChemID>
104525

> <source_casrn>
3218-02-8

> <CAS>
3218-02-8

> <SMILES>
NCC1CCCCC1

> <NAME>
Cyclohexylmethylamine

> <preferred_name>
Cyclohexanemethylamine

> <iupac>
Cyclohexylmethanamine

> <MPID>
23426

> <dsstox_substance_id>
DTXSID10185958

> <Canonical_QSARr>
NCC1CCCCC1

> <InChI_Code_QSARr>
InChI=1S/C7H15N/c8-6-7-4-2-1-3-5-7/h7H,1-6,8H2

> <InChI Key_QSARr>
AVKNGPAMCBSNSO-UHFFFAOYSA-N

> <Salt_Solvent>
?

> <BP>
160.0

$$$$
104529
  -INDIGO-08031720192D

 17 16  0  0  0  0  0  0  0  0999 V2000
   -2.4000   -1.3856    0.0000 Br  0  0  0  0  0  0  0  0  0  0  0  0
   -0.8000   -1.3856    0.0000 C   0  0  0  0  0  0  0  0  0  0  0  0
   -1.6000   -2.7713    0.0000 H   0  0  0  0  0  0  0  0  0  0  0  0
    0.0000   -2.7713    0.0000 H   0  0  0  0  0  0  0  0  0  0  0  0
    0.0000    0.0000    0.0000 C   0  0  0  0  0  0  0  0  0  0  0  0
    0.8000    1.3856    0.0000 C   0  0  0  0  0  0  0  0  0  0  0  0
    1.6000    2.7713    0.0000 H   0  0  0  0  0  0  0  0  0  0  0  0
    2.4000    1.3856    0.0000 H   0  0  0  0  0  0  0  0  0  0  0  0
    0.0000    2.7713    0.0000 Br  0  0  0  0  0  0  0  0  0  0  0  0
   -1.3856    0.8000    0.0000 C   0  0  0  0  0  0  0  0  0  0  0  0
   -2.7713    1.6000    0.0000 H   0  0  0  0  0  0  0  0  0  0  0  0
   -2.7713    0.0000    0.0000 H   0  0  0  0  0  0  0  0  0  0  0  0
   -1.3856    2.4000    0.0000 Br  0  0  0  0  0  0  0  0  0  0  0  0
    1.3856   -0.8000    0.0000 C   0  0  0  0  0  0  0  0  0  0  0  0
    2.7713   -1.6000    0.0000 H   0  0  0  0  0  0  0  0  0  0  0  0
    1.3856   -2.4000    0.0000 H   0  0  0  0  0  0  0  0  0  0  0  0
    2.7713    0.0000    0.0000 Br  0  0  0  0  0  0  0  0  0  0  0  0
  1  2  1  0  0  0  0
  2  3  1  0  0  0  0
  2  4  1  0  0  0  0
  2  5  1  0  0  0  0
  5  6  1  0  0  0  0
  6  7  1  0  0  0  0
  6  8  1  0  0  0  0
  6  9  1  0  0  0  0
  5 10  1  0  0  0  0
 10 11  1  0  0  0  0
 10 12  1  0  0  0  0
 10 13  1  0  0  0  0
  5 14  1  0  0  0  0
 14 15  1  0  0  0  0
 14 16  1  0  0  0  0
 14 17  1  0  0  0  0
M  END
> <ChemID>
104529

> <source_casrn>
3229-00-3

> <CAS>
3229-00-3

> <SMILES>
BrCC(CBr)(CBr)CBr

> <NAME>
PROPANE, 1,3-DIBROMO-2,2-BIS(BROMOMETHYL)-

> <preferred_name>
Propane, 1,3-dibromo-2,2-bis(bromomethyl)-

> <iupac>
1,3-Dibromo-2,2-bis(bromomethyl)propane

> <MPID>
23430

> <dsstox_substance_id>
DTXSID1062916

> <Canonical_QSARr>
BrCC(CBr)(CBr)CBr

> <InChI_Code_QSARr>
InChI=1S/C5H8Br4/c6-1-5(2-7,3-8)4-9/h1-4H2

> <InChI Key_QSARr>
OYSVBCSOQFXYHK-UHFFFAOYSA-N

> <Salt_Solvent>
?

> <BP>
305.5

$$$$
104533
  -INDIGO-08031720192D

 20 19  0  0  0  0  0  0  0  0999 V2000
    4.1569    0.8000    0.0000 C   0  0  0  0  0  0  0  0  0  0  0  0
    5.5426    1.6000    0.0000 H   0  0  0  0  0  0  0  0  0  0  0  0
    5.5426    0.0000    0.0000 H   0  0  0  0  0  0  0  0  0  0  0  0
    4.1569    2.4000    0.0000 H   0  0  0  0  0  0  0  0  0  0  0  0
    2.7713    0.0000    0.0000 C   0  0  0  0  0  0  0  0  0  0  0  0
    2.7713   -1.6000    0.0000 O   0  0  0  0  0  0  0  0  0  0  0  0
    1.3857    0.8000    0.0000 C   0  0  0  0  0  0  0  0  0  0  0  0
    0.7734    2.2782    0.0000 H   0  0  0  0  0  0  0  0  0  0  0  0
    1.9980    2.2782    0.0000 H   0  0  0  0  0  0  0  0  0  0  0  0
   -0.0001    0.0000    0.0000 C   0  0  0  0  0  0  0  0  0  0  0  0
    0.6122   -1.4782    0.0000 H   0  0  0  0  0  0  0  0  0  0  0  0
   -0.6124   -1.4782    0.0000 H   0  0  0  0  0  0  0  0  0  0  0  0
   -1.3857    0.8000    0.0000 C   0  0  0  0  0  0  0  0  0  0  0  0
   -1.3857    2.4000    0.0000 C   0  0  0  0  0  0  0  0  0  0  0  0
   -2.7713    3.2000    0.0000 H   0  0  0  0  0  0  0  0  0  0  0  0
   -0.0001    3.2000    0.0000 H   0  0  0  0  0  0  0  0  0  0  0  0
   -2.7713    0.0000    0.0000 C   0  0  0  0  0  0  0  0  0  0  0  0
   -4.1569   -0.8000    0.0000 H   0  0  0  0  0  0  0  0  0  0  0  0
   -4.1569    0.8000    0.0000 H   0  0  0  0  0  0  0  0  0  0  0  0
   -2.7713   -1.6000    0.0000 H   0  0  0  0  0  0  0  0  0  0  0  0
  1  2  1  0  0  0  0
  1  3  1  0  0  0  0
  1  4  1  0  0  0  0
  1  5  1  0  0  0  0
  5  6  2  0  0  0  0
  5  7  1  0  0  0  0
  7  8  1  0  0  0  0
  7  9  1  0  0  0  0
  7 10  1  0  0  0  0
 10 11  1  0  0  0  0
 10 12  1  0  0  0  0
 10 13  1  0  0  0  0
 13 14  2  0  0  0  0
 14 15  1  0  0  0  0
 14 16  1  0  0  0  0
 13 17  1  0  0  0  0
 17 18  1  0  0  0  0
 17 19  1  0  0  0  0
 17 20  1  0  0  0  0
M  END
> <ChemID>
104533

> <source_casrn>
3240-09-3

> <CAS>
3240-09-3

> <SMILES>
CC(=O)CCC(C)=C

> <NAME>
5-Hexen-2-one, 5-methyl-

> <preferred_name>
5-Hexen-2-one, 5-methyl-

> <iupac>
5-Methylhex-5-en-2-one

> <MPID>
23434

> <dsstox_substance_id>
DTXSID5062928

> <Canonical_QSARr>
CC(=O)CCC(C)=C

> <InChI_Code_QSARr>
InChI=1S/C7H12O/c1-6(2)4-5-7(3)8/h1,4-5H2,2-3H3

> <InChI Key_QSARr>
VBCIOOKAKHGVMI-UHFFFAOYSA-N

> <Salt_Solvent>
?

> <BP>
150.0

$$$$
104537
  -INDIGO-08031720192D

  7  6  0  0  0  0  0  0  0  0999 V2000
   -1.3856   -0.8000    0.0000 Cl  0  0  0  0  0  0  0  0  0  0  0  0
    0.0000    0.0000    0.0000 C   0  0  0  0  0  0  0  0  0  0  0  0
   -1.3856    0.8000    0.0000 H   0  0  0  0  0  0  0  0  0  0  0  0
    0.0000    1.6000    0.0000 H   0  0  0  0  0  0  0  0  0  0  0  0
    1.3857   -0.8000    0.0000 S   0  0  0  0  0  0  0  0  0  0  0  0
    2.7713    0.0000    0.0000 C   0  0  0  0  0  0  0  0  0  0  0  0
    4.1569    0.8000    0.0000 N   0  0  0  0  0  0  0  0  0  0  0  0
  1  2  1  0  0  0  0
  2  3  1  0  0  0  0
  2  4  1  0  0  0  0
  2  5  1  0  0  0  0
  5  6  1  0  0  0  0
  6  7  3  0  0  0  0
M  END
> <ChemID>
104537

> <source_casrn>
3268-79-9

> <CAS>
3268-79-9

> <SMILES>
N#CSCCl

> <NAME>
Chloro-thiocyanato-methane

> <preferred_name>
Thiocyanic acid, chloromethyl ester

> <iupac>
chloro-thiocyanatomethane

> <MPID>
23438

> <dsstox_substance_id>
DTXSID80186351

> <Canonical_QSARr>
N#CSCCl

> <InChI_Code_QSARr>
InChI=1S/C2H2ClNS/c3-1-5-2-4/h1H2

> <InChI Key_QSARr>
UXUCVNXUWOLPRU-UHFFFAOYSA-N

> <Salt_Solvent>
?

> <BP>
185.0

$$$$
104542
  -INDIGO-08031720192D

 27 27  0  0  0  0  0  0  0  0999 V2000
    0.0001   -0.0000    0.0000 C   0  0  0  0  0  0  0  0  0  0  0  0
    1.2256    1.0285    0.0000 H   0  0  0  0  0  0  0  0  0  0  0  0
    1.5035   -0.5473    0.0000 C   0  0  0  0  0  0  0  0  0  0  0  0
    2.7292    0.4812    0.0000 O   0  0  0  0  0  0  0  0  0  0  0  0
    4.2328   -0.0660    0.0000 C   0  0  0  0  0  0  0  0  0  0  0  0
    5.0924   -1.4154    0.0000 H   0  0  0  0  0  0  0  0  0  0  0  0
    3.8864   -1.6280    0.0000 H   0  0  0  0  0  0  0  0  0  0  0  0
    5.4583    0.9624    0.0000 C   0  0  0  0  0  0  0  0  0  0  0  0
    6.6840    1.9909    0.0000 H   0  0  0  0  0  0  0  0  0  0  0  0
    6.9619    0.4152    0.0000 H   0  0  0  0  0  0  0  0  0  0  0  0
    5.1805    2.5381    0.0000 H   0  0  0  0  0  0  0  0  0  0  0  0
    1.7813   -2.1229    0.0000 O   0  0  0  0  0  0  0  0  0  0  0  0
   -0.7999    1.3857    0.0000 C   0  0  0  0  0  0  0  0  0  0  0  0
    0.7035    1.9329    0.0000 H   0  0  0  0  0  0  0  0  0  0  0  0
   -1.0778    2.9613    0.0000 H   0  0  0  0  0  0  0  0  0  0  0  0
   -2.3999    1.3857    0.0000 C   0  0  0  0  0  0  0  0  0  0  0  0
   -2.1221    2.9613    0.0000 H   0  0  0  0  0  0  0  0  0  0  0  0
   -3.9035    1.9329    0.0000 H   0  0  0  0  0  0  0  0  0  0  0  0
   -3.1999   -0.0000    0.0000 C   0  0  0  0  0  0  0  0  0  0  0  0
   -4.4257    1.0285    0.0000 H   0  0  0  0  0  0  0  0  0  0  0  0
   -4.4257   -1.0285    0.0000 H   0  0  0  0  0  0  0  0  0  0  0  0
   -2.3999   -1.3857    0.0000 C   0  0  0  0  0  0  0  0  0  0  0  0
   -3.9035   -1.9329    0.0000 H   0  0  0  0  0  0  0  0  0  0  0  0
   -2.1221   -2.9613    0.0000 H   0  0  0  0  0  0  0  0  0  0  0  0
   -0.7999   -1.3857    0.0000 C   0  0  0  0  0  0  0  0  0  0  0  0
   -1.0778   -2.9613    0.0000 H   0  0  0  0  0  0  0  0  0  0  0  0
    0.7035   -1.9329    0.0000 H   0  0  0  0  0  0  0  0  0  0  0  0
  1  2  1  0  0  0  0
  1  3  1  0  0  0  0
  3  4  1  0  0  0  0
  4  5  1  0  0  0  0
  5  6  1  0  0  0  0
  5  7  1  0  0  0  0
  5  8  1  0  0  0  0
  8  9  1  0  0  0  0
  8 10  1  0  0  0  0
  8 11  1  0  0  0  0
  3 12  2  0  0  0  0
  1 13  1  0  0  0  0
 13 14  1  0  0  0  0
 13 15  1  0  0  0  0
 13 16  1  0  0  0  0
 16 17  1  0  0  0  0
 16 18  1  0  0  0  0
 16 19  1  0  0  0  0
 19 20  1  0  0  0  0
 19 21  1  0  0  0  0
 19 22  1  0  0  0  0
 22 23  1  0  0  0  0
 22 24  1  0  0  0  0
 22 25  1  0  0  0  0
 25  1  1  0  0  0  0
 25 26  1  0  0  0  0
 25 27  1  0  0  0  0
M  END
> <ChemID>
104542

> <source_casrn>
3289-28-9

> <CAS>
3289-28-9

> <SMILES>
CCOC(=O)C1CCCCC1

> <NAME>
Cyclohexanecarboxylic acid, ethyl ester

> <preferred_name>
Cyclohexanecarboxylic acid, ethyl ester

> <iupac>
Ethyl cyclohexanecarboxylate

> <MPID>
23442

> <dsstox_substance_id>
DTXSID7062958

> <Canonical_QSARr>
CCOC(=O)C1CCCCC1

> <InChI_Code_QSARr>
InChI=1S/C9H16O2/c1-2-11-9(10)8-6-4-3-5-7-8/h8H,2-7H2,1H3

> <InChI Key_QSARr>
JJOYCHKVKWDMEA-UHFFFAOYSA-N

> <Salt_Solvent>
?

> <BP>
196.0

$$$$
104546
  -INDIGO-08031720192D

 25 24  0  0  0  0  0  0  0  0999 V2000
    2.8891    0.2527    0.0000 C   0  0  0  0  0  0  0  0  0  0  0  0
    4.1148    1.2813    0.0000 H   0  0  0  0  0  0  0  0  0  0  0  0
    3.1669   -1.3229    0.0000 H   0  0  0  0  0  0  0  0  0  0  0  0
    1.3856    0.8000    0.0000 C   0  0  0  0  0  0  0  0  0  0  0  0
    1.3856    2.3999    0.0000 H   0  0  0  0  0  0  0  0  0  0  0  0
   -0.0000    0.0000    0.0000 C   0  0  0  0  0  0  0  0  0  0  0  0
    0.8000   -1.3856    0.0000 C   0  0  0  0  0  0  0  0  0  0  0  0
    2.2782   -0.7733    0.0000 H   0  0  0  0  0  0  0  0  0  0  0  0
    2.2782   -1.9979    0.0000 H   0  0  0  0  0  0  0  0  0  0  0  0
   -0.0000   -2.7712    0.0000 C   0  0  0  0  0  0  0  0  0  0  0  0
   -1.3857   -1.9713    0.0000 H   0  0  0  0  0  0  0  0  0  0  0  0
   -1.0285   -3.9969    0.0000 C   0  0  0  0  0  0  0  0  0  0  0  0
   -2.0569   -5.2227    0.0000 H   0  0  0  0  0  0  0  0  0  0  0  0
   -0.4813   -5.5005    0.0000 H   0  0  0  0  0  0  0  0  0  0  0  0
   -2.6041   -3.7191    0.0000 H   0  0  0  0  0  0  0  0  0  0  0  0
    1.2257   -3.7998    0.0000 C   0  0  0  0  0  0  0  0  0  0  0  0
    2.4514   -4.8282    0.0000 H   0  0  0  0  0  0  0  0  0  0  0  0
    2.7292   -3.2525    0.0000 H   0  0  0  0  0  0  0  0  0  0  0  0
    0.9479   -5.3754    0.0000 H   0  0  0  0  0  0  0  0  0  0  0  0
   -1.3857   -0.8000    0.0000 O   0  0  0  0  0  0  0  0  0  0  0  0
   -2.7713    0.0000    0.0000 H   0  0  0  0  0  0  0  0  0  0  0  0
   -0.8000    1.3857    0.0000 C   0  0  0  0  0  0  0  0  0  0  0  0
   -1.6000    2.7713    0.0000 H   0  0  0  0  0  0  0  0  0  0  0  0
   -0.0000    2.7713    0.0000 H   0  0  0  0  0  0  0  0  0  0  0  0
   -2.4001    1.3857    0.0000 H   0  0  0  0  0  0  0  0  0  0  0  0
  1  2  1  0  0  0  0
  1  3  1  0  0  0  0
  1  4  2  0  0  0  0
  4  5  1  0  0  0  0
  4  6  1  0  0  0  0
  6  7  1  0  0  0  0
  7  8  1  0  0  0  0
  7  9  1  0  0  0  0
  7 10  1  0  0  0  0
 10 11  1  0  0  0  0
 10 12  1  0  0  0  0
 12 13  1  0  0  0  0
 12 14  1  0  0  0  0
 12 15  1  0  0  0  0
 10 16  1  0  0  0  0
 16 17  1  0  0  0  0
 16 18  1  0  0  0  0
 16 19  1  0  0  0  0
  6 20  1  0  0  0  0
 20 21  1  0  0  0  0
  6 22  1  0  0  0  0
 22 23  1  0  0  0  0
 22 24  1  0  0  0  0
 22 25  1  0  0  0  0
M  END
> <ChemID>
104546

> <source_casrn>
3329-48-4

> <CAS>
NOCAS_863153

> <SMILES>
CC(C)CC(C)(O)C=C

> <NAME>
1-Hexen-3-ol, 3,5-dimethyl-

> <preferred_name>


> <iupac>


> <MPID>
23446

> <dsstox_substance_id>
DTXSID60863153

> <Canonical_QSARr>
CC(C)CC(C)(O)C=C

> <InChI_Code_QSARr>
InChI=1S/C8H16O/c1-5-8(4,9)6-7(2)3/h5,7,9H,1,6H2,2-4H3

> <InChI Key_QSARr>
AOOGNPSUQVRFMF-UHFFFAOYSA-N

> <Salt_Solvent>
?

> <BP>
146.5

$$$$
104550
  -INDIGO-08031720192D

 23 23  0  0  0  0  0  0  0  0999 V2000
   -0.0001    2.7713    0.0000 O   0  0  0  0  0  0  0  0  0  0  0  0
    1.6000    2.7713    0.0000 H   0  0  0  0  0  0  0  0  0  0  0  0
   -0.8000    1.3856    0.0000 C   0  0  0  0  0  0  0  0  0  0  0  0
    0.0001    0.0000    0.0000 C   0  0  0  0  0  0  0  0  0  0  0  0
    1.6000    0.0000    0.0000 C   0  0  0  0  0  0  0  0  0  0  0  0
    2.8693    0.9740    0.0000 H   0  0  0  0  0  0  0  0  0  0  0  0
    1.8089    1.5863    0.0000 H   0  0  0  0  0  0  0  0  0  0  0  0
    2.4000   -1.3856    0.0000 C   0  0  0  0  0  0  0  0  0  0  0  0
    1.6000   -2.7713    0.0000 H   0  0  0  0  0  0  0  0  0  0  0  0
    4.0000   -1.3856    0.0000 C   0  0  0  0  0  0  0  0  0  0  0  0
    4.8000   -2.7713    0.0000 H   0  0  0  0  0  0  0  0  0  0  0  0
    4.8000    0.0000    0.0000 H   0  0  0  0  0  0  0  0  0  0  0  0
   -0.8000   -1.3856    0.0000 C   0  0  0  0  0  0  0  0  0  0  0  0
    0.0001   -2.7713    0.0000 H   0  0  0  0  0  0  0  0  0  0  0  0
   -2.4000   -1.3856    0.0000 C   0  0  0  0  0  0  0  0  0  0  0  0
   -3.2001   -2.7713    0.0000 H   0  0  0  0  0  0  0  0  0  0  0  0
   -3.2001    0.0000    0.0000 C   0  0  0  0  0  0  0  0  0  0  0  0
   -4.8000    0.0000    0.0000 H   0  0  0  0  0  0  0  0  0  0  0  0
   -2.4000    1.3856    0.0000 C   0  0  0  0  0  0  0  0  0  0  0  0
   -3.1999    2.7713    0.0000 C   0  0  0  0  0  0  0  0  0  0  0  0
   -4.0000    4.1569    0.0000 H   0  0  0  0  0  0  0  0  0  0  0  0
   -4.8000    2.7713    0.0000 H   0  0  0  0  0  0  0  0  0  0  0  0
   -2.4000    4.1569    0.0000 H   0  0  0  0  0  0  0  0  0  0  0  0
  1  2  1  0  0  0  0
  1  3  1  0  0  0  0
  3  4  1  0  0  0  0
  4  5  1  0  0  0  0
  5  6  1  0  0  0  0
  5  7  1  0  0  0  0
  5  8  1  0  0  0  0
  8  9  1  0  0  0  0
  8 10  2  0  0  0  0
 10 11  1  0  0  0  0
 10 12  1  0  0  0  0
  4 13  2  0  0  0  0
 13 14  1  0  0  0  0
 13 15  1  0  0  0  0
 15 16  1  0  0  0  0
 15 17  2  0  0  0  0
 17 18  1  0  0  0  0
 17 19  1  0  0  0  0
 19  3  2  0  0  0  0
 19 20  1  0  0  0  0
 20 21  1  0  0  0  0
 20 22  1  0  0  0  0
 20 23  1  0  0  0  0
M  END
> <ChemID>
104550

> <source_casrn>
3354-58-3

> <CAS>
3354-58-3

> <SMILES>
Cc1cccc(CC=C)c1O

> <NAME>
2-Allyl-6-methylphenol

> <preferred_name>
6-Allyl-o-cresol

> <iupac>
2-methyl-6-prop-2-enylphenol

> <MPID>
23450

> <dsstox_substance_id>
DTXSID50187198

> <Canonical_QSARr>
Cc1cccc(CC=C)c1O

> <InChI_Code_QSARr>
InChI=1S/C10H12O/c1-3-5-9-7-4-6-8(2)10(9)11/h3-4,6-7,11H,1,5H2,2H3

> <InChI Key_QSARr>
WREVCRYZAWNLRZ-UHFFFAOYSA-N

> <Salt_Solvent>
?

> <BP>
232.0

$$$$
104554
  -INDIGO-08031720192D

 22 22  0  0  0  0  0  0  0  0999 V2000
    1.3856   -2.4000    0.0000 Cl  0  0  0  0  0  0  0  0  0  0  0  0
    1.3856   -0.8000    0.0000 C   0  0  0  0  0  0  0  0  0  0  0  0
    2.7713   -1.6000    0.0000 H   0  0  0  0  0  0  0  0  0  0  0  0
    2.7713   -0.0000    0.0000 H   0  0  0  0  0  0  0  0  0  0  0  0
   -0.0000   -0.0000    0.0000 C   0  0  0  0  0  0  0  0  0  0  0  0
    0.6123    1.4782    0.0000 H   0  0  0  0  0  0  0  0  0  0  0  0
   -0.6124    1.4782    0.0000 H   0  0  0  0  0  0  0  0  0  0  0  0
   -1.3857   -0.8000    0.0000 C   0  0  0  0  0  0  0  0  0  0  0  0
   -1.9979   -2.2782    0.0000 H   0  0  0  0  0  0  0  0  0  0  0  0
   -0.7734   -2.2782    0.0000 H   0  0  0  0  0  0  0  0  0  0  0  0
   -2.7712   -0.0000    0.0000 O   0  0  0  0  0  0  0  0  0  0  0  0
   -4.1569   -0.8000    0.0000 C   0  0  0  0  0  0  0  0  0  0  0  0
   -4.1569   -2.4000    0.0000 C   0  0  0  0  0  0  0  0  0  0  0  0
   -2.7712   -3.2000    0.0000 H   0  0  0  0  0  0  0  0  0  0  0  0
   -5.5425   -3.2000    0.0000 C   0  0  0  0  0  0  0  0  0  0  0  0
   -5.5425   -4.8000    0.0000 H   0  0  0  0  0  0  0  0  0  0  0  0
   -6.9282   -2.4000    0.0000 C   0  0  0  0  0  0  0  0  0  0  0  0
   -8.3138   -3.2000    0.0000 H   0  0  0  0  0  0  0  0  0  0  0  0
   -6.9282   -0.8000    0.0000 C   0  0  0  0  0  0  0  0  0  0  0  0
   -8.3138   -0.0000    0.0000 H   0  0  0  0  0  0  0  0  0  0  0  0
   -5.5425   -0.0000    0.0000 C   0  0  0  0  0  0  0  0  0  0  0  0
   -5.5425    1.6000    0.0000 H   0  0  0  0  0  0  0  0  0  0  0  0
  1  2  1  0  0  0  0
  2  3  1  0  0  0  0
  2  4  1  0  0  0  0
  2  5  1  0  0  0  0
  5  6  1  0  0  0  0
  5  7  1  0  0  0  0
  5  8  1  0  0  0  0
  8  9  1  0  0  0  0
  8 10  1  0  0  0  0
  8 11  1  0  0  0  0
 11 12  1  0  0  0  0
 12 13  1  0  0  0  0
 13 14  1  0  0  0  0
 13 15  2  0  0  0  0
 15 16  1  0  0  0  0
 15 17  1  0  0  0  0
 17 18  1  0  0  0  0
 17 19  2  0  0  0  0
 19 20  1  0  0  0  0
 19 21  1  0  0  0  0
 21 12  2  0  0  0  0
 21 22  1  0  0  0  0
M  END
> <ChemID>
104554

> <source_casrn>
3384-04-1

> <CAS>
3384-04-1

> <SMILES>
ClCCCOc1ccccc1

> <NAME>
(3-Chloro-propoxy)-benzene

> <preferred_name>
(3-Chloropropoxy)benzene

> <iupac>
3-chloropropoxybenzene

> <MPID>
23454

> <dsstox_substance_id>
DTXSID20187483

> <Canonical_QSARr>
ClCCCOc1ccccc1

> <InChI_Code_QSARr>
InChI=1S/C9H11ClO/c10-7-4-8-11-9-5-2-1-3-6-9/h1-3,5-6H,4,7-8H2

> <InChI Key_QSARr>
AZXLOLRTEJEZHJ-UHFFFAOYSA-N

> <Salt_Solvent>
?

> <BP>
250.0

$$$$
104558
  -INDIGO-08031720192D

 24 23  0  0  0  0  0  0  0  0999 V2000
    2.3756    1.6635    0.0000 C   0  0  0  0  0  0  0  0  0  0  0  0
    3.4042    0.4378    0.0000 H   0  0  0  0  0  0  0  0  0  0  0  0
    2.9229    3.1670    0.0000 H   0  0  0  0  0  0  0  0  0  0  0  0
    0.7999    1.3856    0.0000 C   0  0  0  0  0  0  0  0  0  0  0  0
    0.2528    2.8891    0.0000 H   0  0  0  0  0  0  0  0  0  0  0  0
   -0.0001    0.0000    0.0000 C   0  0  0  0  0  0  0  0  0  0  0  0
   -0.8001   -1.3856    0.0000 H   0  0  0  0  0  0  0  0  0  0  0  0
   -1.3856    0.8000    0.0000 C   0  0  0  0  0  0  0  0  0  0  0  0
   -0.7733    2.2782    0.0000 H   0  0  0  0  0  0  0  0  0  0  0  0
   -1.9979    2.2782    0.0000 H   0  0  0  0  0  0  0  0  0  0  0  0
   -2.7712    0.0000    0.0000 C   0  0  0  0  0  0  0  0  0  0  0  0
   -3.3835   -1.4782    0.0000 H   0  0  0  0  0  0  0  0  0  0  0  0
   -2.1590   -1.4782    0.0000 H   0  0  0  0  0  0  0  0  0  0  0  0
   -4.1569    0.8000    0.0000 C   0  0  0  0  0  0  0  0  0  0  0  0
   -5.5426    1.5999    0.0000 H   0  0  0  0  0  0  0  0  0  0  0  0
   -5.5426    0.0000    0.0000 H   0  0  0  0  0  0  0  0  0  0  0  0
   -4.1569    2.4000    0.0000 H   0  0  0  0  0  0  0  0  0  0  0  0
    1.3856   -0.8000    0.0000 C   0  0  0  0  0  0  0  0  0  0  0  0
    2.9719   -0.5912    0.0000 H   0  0  0  0  0  0  0  0  0  0  0  0
    2.3597    0.4694    0.0000 H   0  0  0  0  0  0  0  0  0  0  0  0
    1.3856   -2.4000    0.0000 C   0  0  0  0  0  0  0  0  0  0  0  0
    1.3856   -4.0000    0.0000 H   0  0  0  0  0  0  0  0  0  0  0  0
    2.7713   -3.2000    0.0000 H   0  0  0  0  0  0  0  0  0  0  0  0
   -0.0001   -3.2000    0.0000 H   0  0  0  0  0  0  0  0  0  0  0  0
  1  2  1  0  0  0  0
  1  3  1  0  0  0  0
  1  4  2  0  0  0  0
  4  5  1  0  0  0  0
  4  6  1  0  0  0  0
  6  7  1  0  0  0  0
  6  8  1  0  0  0  0
  8  9  1  0  0  0  0
  8 10  1  0  0  0  0
  8 11  1  0  0  0  0
 11 12  1  0  0  0  0
 11 13  1  0  0  0  0
 11 14  1  0  0  0  0
 14 15  1  0  0  0  0
 14 16  1  0  0  0  0
 14 17  1  0  0  0  0
  6 18  1  0  0  0  0
 18 19  1  0  0  0  0
 18 20  1  0  0  0  0
 18 21  1  0  0  0  0
 21 22  1  0  0  0  0
 21 23  1  0  0  0  0
 21 24  1  0  0  0  0
M  END
> <ChemID>
104558

> <source_casrn>
3404-58-8

> <CAS>
NOCAS_871020

> <SMILES>
CCC(CCC)C=C

> <NAME>
3-ETHYL-1-HEXENE

> <preferred_name>


> <iupac>


> <MPID>
23458

> <dsstox_substance_id>
DTXSID50871020

> <Canonical_QSARr>
CCC(CCC)C=C

> <InChI_Code_QSARr>
InChI=1S/C8H16/c1-4-7-8(5-2)6-3/h5,8H,2,4,6-7H2,1,3H3

> <InChI Key_QSARr>
OLGHJTHQWQKJQQ-UHFFFAOYSA-N

> <Salt_Solvent>
?

> <BP>
110.3

$$$$
104562
  -INDIGO-08031720192D

 21 20  0  0  0  0  0  0  0  0999 V2000
    1.3857    2.4000    0.0000 C   0  0  0  0  0  0  0  0  0  0  0  0
    2.7713    3.2000    0.0000 H   0  0  0  0  0  0  0  0  0  0  0  0
   -0.0001    3.2000    0.0000 H   0  0  0  0  0  0  0  0  0  0  0  0
    1.3857    0.8000    0.0000 C   0  0  0  0  0  0  0  0  0  0  0  0
   -0.0001    0.0000    0.0000 C   0  0  0  0  0  0  0  0  0  0  0  0
    0.6122   -1.4782    0.0000 H   0  0  0  0  0  0  0  0  0  0  0  0
   -0.6124   -1.4782    0.0000 H   0  0  0  0  0  0  0  0  0  0  0  0
   -1.3857    0.8000    0.0000 C   0  0  0  0  0  0  0  0  0  0  0  0
   -1.9980    2.2782    0.0000 H   0  0  0  0  0  0  0  0  0  0  0  0
   -0.7734    2.2782    0.0000 H   0  0  0  0  0  0  0  0  0  0  0  0
   -2.7713    0.0000    0.0000 C   0  0  0  0  0  0  0  0  0  0  0  0
   -4.1569   -0.8000    0.0000 H   0  0  0  0  0  0  0  0  0  0  0  0
   -4.1569    0.8000    0.0000 H   0  0  0  0  0  0  0  0  0  0  0  0
   -2.7713   -1.6000    0.0000 H   0  0  0  0  0  0  0  0  0  0  0  0
    2.7713    0.0000    0.0000 C   0  0  0  0  0  0  0  0  0  0  0  0
    3.3836   -1.4782    0.0000 H   0  0  0  0  0  0  0  0  0  0  0  0
    2.1590   -1.4782    0.0000 H   0  0  0  0  0  0  0  0  0  0  0  0
    4.1569    0.8000    0.0000 C   0  0  0  0  0  0  0  0  0  0  0  0
    5.5426    0.0000    0.0000 H   0  0  0  0  0  0  0  0  0  0  0  0
    5.5426    1.6000    0.0000 H   0  0  0  0  0  0  0  0  0  0  0  0
    4.1569   -0.8000    0.0000 H   0  0  0  0  0  0  0  0  0  0  0  0
  1  2  1  0  0  0  0
  1  3  1  0  0  0  0
  1  4  2  0  0  0  0
  4  5  1  0  0  0  0
  5  6  1  0  0  0  0
  5  7  1  0  0  0  0
  5  8  1  0  0  0  0
  8  9  1  0  0  0  0
  8 10  1  0  0  0  0
  8 11  1  0  0  0  0
 11 12  1  0  0  0  0
 11 13  1  0  0  0  0
 11 14  1  0  0  0  0
  4 15  1  0  0  0  0
 15 16  1  0  0  0  0
 15 17  1  0  0  0  0
 15 18  1  0  0  0  0
 18 19  1  0  0  0  0
 18 20  1  0  0  0  0
 18 21  1  0  0  0  0
M  END
> <ChemID>
104562

> <source_casrn>
3404-71-5

> <CAS>
NOCAS_871024

> <SMILES>
CCC(=C)CCC

> <NAME>
2-ETHYL-1-PENTENE

> <preferred_name>


> <iupac>


> <MPID>
23462

> <dsstox_substance_id>
DTXSID90871024

> <Canonical_QSARr>
CCC(=C)CCC

> <InChI_Code_QSARr>
InChI=1S/C7H14/c1-4-6-7(3)5-2/h3-6H2,1-2H3

> <InChI Key_QSARr>
TWCRBBJSQAZZQB-UHFFFAOYSA-N

> <Salt_Solvent>
?

> <BP>
94.0

$$$$
104566
  -INDIGO-08031720192D

 24 23  0  0  0  0  0  0  0  0999 V2000
    4.5106    1.6417    0.0000 C   0  0  0  0  0  0  0  0  0  0  0  0
    4.7883    3.2174    0.0000 H   0  0  0  0  0  0  0  0  0  0  0  0
    6.0140    2.1890    0.0000 H   0  0  0  0  0  0  0  0  0  0  0  0
    3.2848    2.6702    0.0000 H   0  0  0  0  0  0  0  0  0  0  0  0
    4.2327    0.0660    0.0000 C   0  0  0  0  0  0  0  0  0  0  0  0
    2.7292   -0.4812    0.0000 C   0  0  0  0  0  0  0  0  0  0  0  0
    2.4514   -2.0570    0.0000 H   0  0  0  0  0  0  0  0  0  0  0  0
    1.5035    0.5472    0.0000 C   0  0  0  0  0  0  0  0  0  0  0  0
    1.1572    2.1093    0.0000 H   0  0  0  0  0  0  0  0  0  0  0  0
    2.3631    1.8967    0.0000 H   0  0  0  0  0  0  0  0  0  0  0  0
    0.0001   -0.0000    0.0000 C   0  0  0  0  0  0  0  0  0  0  0  0
    0.8000   -1.3856    0.0000 H   0  0  0  0  0  0  0  0  0  0  0  0
   -1.3856   -0.8000    0.0000 C   0  0  0  0  0  0  0  0  0  0  0  0
   -2.7713   -1.6000    0.0000 H   0  0  0  0  0  0  0  0  0  0  0  0
   -2.7713   -0.0000    0.0000 H   0  0  0  0  0  0  0  0  0  0  0  0
   -1.3856   -2.4000    0.0000 H   0  0  0  0  0  0  0  0  0  0  0  0
   -0.8000    1.3856    0.0000 C   0  0  0  0  0  0  0  0  0  0  0  0
   -1.6001    2.7712    0.0000 H   0  0  0  0  0  0  0  0  0  0  0  0
    0.0001    2.7712    0.0000 H   0  0  0  0  0  0  0  0  0  0  0  0
   -2.4000    1.3856    0.0000 H   0  0  0  0  0  0  0  0  0  0  0  0
    5.4584   -0.9624    0.0000 C   0  0  0  0  0  0  0  0  0  0  0  0
    6.6840   -1.9909    0.0000 H   0  0  0  0  0  0  0  0  0  0  0  0
    6.9619   -0.4152    0.0000 H   0  0  0  0  0  0  0  0  0  0  0  0
    5.1805   -2.5381    0.0000 H   0  0  0  0  0  0  0  0  0  0  0  0
  1  2  1  0  0  0  0
  1  3  1  0  0  0  0
  1  4  1  0  0  0  0
  1  5  1  0  0  0  0
  5  6  2  0  0  0  0
  6  7  1  0  0  0  0
  6  8  1  0  0  0  0
  8  9  1  0  0  0  0
  8 10  1  0  0  0  0
  8 11  1  0  0  0  0
 11 12  1  0  0  0  0
 11 13  1  0  0  0  0
 13 14  1  0  0  0  0
 13 15  1  0  0  0  0
 13 16  1  0  0  0  0
 11 17  1  0  0  0  0
 17 18  1  0  0  0  0
 17 19  1  0  0  0  0
 17 20  1  0  0  0  0
  5 21  1  0  0  0  0
 21 22  1  0  0  0  0
 21 23  1  0  0  0  0
 21 24  1  0  0  0  0
M  END
> <ChemID>
104566

> <source_casrn>
3404-78-2

> <CAS>
NOCAS_871025

> <SMILES>
CC(C)CC=C(C)C

> <NAME>
2,5-DIMETHYL-2-HEXENE

> <preferred_name>


> <iupac>


> <MPID>
23466

> <dsstox_substance_id>
DTXSID50871025

> <Canonical_QSARr>
CC(C)CC=C(C)C

> <InChI_Code_QSARr>
InChI=1S/C8H16/c1-7(2)5-6-8(3)4/h5,8H,6H2,1-4H3

> <InChI Key_QSARr>
VFZIUYUUQFYZBR-UHFFFAOYSA-N

> <Salt_Solvent>
?

> <BP>
112.2

$$$$
104572
  -INDIGO-08031720192D

 25 24  0  0  0  0  0  0  0  0999 V2000
   -1.3855    0.8000    0.0000 C   0  0  0  0  0  0  0  0  0  0  0  0
   -0.7734    2.2782    0.0000 H   0  0  0  0  0  0  0  0  0  0  0  0
   -1.9979    2.2782    0.0000 H   0  0  0  0  0  0  0  0  0  0  0  0
    0.0000    0.0000    0.0000 C   0  0  0  0  0  0  0  0  0  0  0  0
   -0.6123   -1.4782    0.0000 H   0  0  0  0  0  0  0  0  0  0  0  0
    0.6123   -1.4782    0.0000 H   0  0  0  0  0  0  0  0  0  0  0  0
    1.3857    0.8000    0.0000 C   0  0  0  0  0  0  0  0  0  0  0  0
    1.9979    2.2782    0.0000 H   0  0  0  0  0  0  0  0  0  0  0  0
    0.7734    2.2782    0.0000 H   0  0  0  0  0  0  0  0  0  0  0  0
    2.7713    0.0000    0.0000 C   0  0  0  0  0  0  0  0  0  0  0  0
    2.1590   -1.4782    0.0000 H   0  0  0  0  0  0  0  0  0  0  0  0
    3.3836   -1.4782    0.0000 H   0  0  0  0  0  0  0  0  0  0  0  0
    4.1570    0.8000    0.0000 C   0  0  0  0  0  0  0  0  0  0  0  0
    5.5426    1.6000    0.0000 H   0  0  0  0  0  0  0  0  0  0  0  0
    5.5426    0.0000    0.0000 H   0  0  0  0  0  0  0  0  0  0  0  0
    4.1570    2.4000    0.0000 H   0  0  0  0  0  0  0  0  0  0  0  0
   -2.7713    0.0000    0.0000 C   0  0  0  0  0  0  0  0  0  0  0  0
   -3.3836   -1.4782    0.0000 H   0  0  0  0  0  0  0  0  0  0  0  0
   -2.1590   -1.4782    0.0000 H   0  0  0  0  0  0  0  0  0  0  0  0
   -4.1568    0.8000    0.0000 C   0  0  0  0  0  0  0  0  0  0  0  0
   -3.5447    2.2782    0.0000 H   0  0  0  0  0  0  0  0  0  0  0  0
   -4.7691    2.2782    0.0000 H   0  0  0  0  0  0  0  0  0  0  0  0
   -5.5426    0.0000    0.0000 C   0  0  0  0  0  0  0  0  0  0  0  0
   -6.9281   -0.8000    0.0000 C   0  0  0  0  0  0  0  0  0  0  0  0
   -8.3138   -1.6000    0.0000 H   0  0  0  0  0  0  0  0  0  0  0  0
  1  2  1  0  0  0  0
  1  3  1  0  0  0  0
  1  4  1  0  0  0  0
  4  5  1  0  0  0  0
  4  6  1  0  0  0  0
  4  7  1  0  0  0  0
  7  8  1  0  0  0  0
  7  9  1  0  0  0  0
  7 10  1  0  0  0  0
 10 11  1  0  0  0  0
 10 12  1  0  0  0  0
 10 13  1  0  0  0  0
 13 14  1  0  0  0  0
 13 15  1  0  0  0  0
 13 16  1  0  0  0  0
  1 17  1  0  0  0  0
 17 18  1  0  0  0  0
 17 19  1  0  0  0  0
 17 20  1  0  0  0  0
 20 21  1  0  0  0  0
 20 22  1  0  0  0  0
 20 23  1  0  0  0  0
 23 24  3  0  0  0  0
 24 25  1  0  0  0  0
M  END
> <ChemID>
104572

> <source_casrn>
3452-09-3

> <CAS>
3452-09-3

> <SMILES>
CCCCCCCC#C

> <NAME>
1-NONYNE

> <preferred_name>
1-Nonyne

> <iupac>
non-1-yne

> <MPID>
23470

> <dsstox_substance_id>
DTXSID4063036

> <Canonical_QSARr>
CCCCCCCC#C

> <InChI_Code_QSARr>
InChI=1S/C9H16/c1-3-5-7-9-8-6-4-2/h1H,4-9H2,2H3

> <InChI Key_QSARr>
OSSQSXOTMIGBCF-UHFFFAOYSA-N

> <Salt_Solvent>
?

> <BP>
150.8

$$$$
104576
  -INDIGO-08031720192D

 53 52  0  0  0  0  0  0  0  0999 V2000
    9.6994   -0.8000    0.0000 C   0  0  0  0  0  0  0  0  0  0  0  0
   11.0851   -1.6000    0.0000 H   0  0  0  0  0  0  0  0  0  0  0  0
   11.0851    0.0000    0.0000 H   0  0  0  0  0  0  0  0  0  0  0  0
    8.3137    0.0000    0.0000 C   0  0  0  0  0  0  0  0  0  0  0  0
    8.9261    1.4782    0.0000 H   0  0  0  0  0  0  0  0  0  0  0  0
    7.7017    1.4782    0.0000 H   0  0  0  0  0  0  0  0  0  0  0  0
    6.9284   -0.8000    0.0000 C   0  0  0  0  0  0  0  0  0  0  0  0
    6.3160   -2.2782    0.0000 H   0  0  0  0  0  0  0  0  0  0  0  0
    7.5404   -2.2782    0.0000 H   0  0  0  0  0  0  0  0  0  0  0  0
    5.5427    0.0000    0.0000 C   0  0  0  0  0  0  0  0  0  0  0  0
    6.1547    1.4782    0.0000 H   0  0  0  0  0  0  0  0  0  0  0  0
    4.9303    1.4782    0.0000 H   0  0  0  0  0  0  0  0  0  0  0  0
    4.1570   -0.8000    0.0000 C   0  0  0  0  0  0  0  0  0  0  0  0
    3.5446   -2.2782    0.0000 H   0  0  0  0  0  0  0  0  0  0  0  0
    4.7693   -2.2782    0.0000 H   0  0  0  0  0  0  0  0  0  0  0  0
    2.7713    0.0000    0.0000 C   0  0  0  0  0  0  0  0  0  0  0  0
    3.3836    1.4782    0.0000 H   0  0  0  0  0  0  0  0  0  0  0  0
    2.1589    1.4782    0.0000 H   0  0  0  0  0  0  0  0  0  0  0  0
    1.3856   -0.8000    0.0000 C   0  0  0  0  0  0  0  0  0  0  0  0
    0.7732   -2.2782    0.0000 H   0  0  0  0  0  0  0  0  0  0  0  0
    1.9979   -2.2782    0.0000 H   0  0  0  0  0  0  0  0  0  0  0  0
   -0.0001    0.0000    0.0000 C   0  0  0  0  0  0  0  0  0  0  0  0
    0.6122    1.4782    0.0000 H   0  0  0  0  0  0  0  0  0  0  0  0
   -0.6121    1.4782    0.0000 H   0  0  0  0  0  0  0  0  0  0  0  0
   -1.3854   -0.8000    0.0000 C   0  0  0  0  0  0  0  0  0  0  0  0
   -1.9978   -2.2782    0.0000 H   0  0  0  0  0  0  0  0  0  0  0  0
   -0.7735   -2.2782    0.0000 H   0  0  0  0  0  0  0  0  0  0  0  0
   -2.7712    0.0000    0.0000 C   0  0  0  0  0  0  0  0  0  0  0  0
   -2.1592    1.4782    0.0000 H   0  0  0  0  0  0  0  0  0  0  0  0
   -3.3835    1.4782    0.0000 H   0  0  0  0  0  0  0  0  0  0  0  0
   -4.1569   -0.8000    0.0000 C   0  0  0  0  0  0  0  0  0  0  0  0
   -4.7692   -2.2782    0.0000 H   0  0  0  0  0  0  0  0  0  0  0  0
   -3.5445   -2.2782    0.0000 H   0  0  0  0  0  0  0  0  0  0  0  0
   -5.5426    0.0000    0.0000 C   0  0  0  0  0  0  0  0  0  0  0  0
   -4.9302    1.4782    0.0000 H   0  0  0  0  0  0  0  0  0  0  0  0
   -6.1549    1.4782    0.0000 H   0  0  0  0  0  0  0  0  0  0  0  0
   -6.9283   -0.8000    0.0000 C   0  0  0  0  0  0  0  0  0  0  0  0
   -7.5406   -2.2782    0.0000 H   0  0  0  0  0  0  0  0  0  0  0  0
   -6.3159   -2.2782    0.0000 H   0  0  0  0  0  0  0  0  0  0  0  0
   -8.3140    0.0000    0.0000 C   0  0  0  0  0  0  0  0  0  0  0  0
   -7.7016    1.4782    0.0000 H   0  0  0  0  0  0  0  0  0  0  0  0
   -8.9259    1.4782    0.0000 H   0  0  0  0  0  0  0  0  0  0  0  0
   -9.6997   -0.8000    0.0000 C   0  0  0  0  0  0  0  0  0  0  0  0
  -10.3117   -2.2782    0.0000 H   0  0  0  0  0  0  0  0  0  0  0  0
   -9.0873   -2.2782    0.0000 H   0  0  0  0  0  0  0  0  0  0  0  0
  -11.0850    0.0000    0.0000 C   0  0  0  0  0  0  0  0  0  0  0  0
  -10.4730    1.4782    0.0000 H   0  0  0  0  0  0  0  0  0  0  0  0
  -11.6974    1.4782    0.0000 H   0  0  0  0  0  0  0  0  0  0  0  0
  -12.4707   -0.8000    0.0000 C   0  0  0  0  0  0  0  0  0  0  0  0
  -13.8564   -1.6000    0.0000 H   0  0  0  0  0  0  0  0  0  0  0  0
  -13.8564    0.0000    0.0000 H   0  0  0  0  0  0  0  0  0  0  0  0
  -12.4707   -2.4000    0.0000 H   0  0  0  0  0  0  0  0  0  0  0  0
    9.6994   -2.4000    0.0000 Br  0  0  0  0  0  0  0  0  0  0  0  0
  1  2  1  0  0  0  0
  1  3  1  0  0  0  0
  1  4  1  0  0  0  0
  4  5  1  0  0  0  0
  4  6  1  0  0  0  0
  4  7  1  0  0  0  0
  7  8  1  0  0  0  0
  7  9  1  0  0  0  0
  7 10  1  0  0  0  0
 10 11  1  0  0  0  0
 10 12  1  0  0  0  0
 10 13  1  0  0  0  0
 13 14  1  0  0  0  0
 13 15  1  0  0  0  0
 13 16  1  0  0  0  0
 16 17  1  0  0  0  0
 16 18  1  0  0  0  0
 16 19  1  0  0  0  0
 19 20  1  0  0  0  0
 19 21  1  0  0  0  0
 19 22  1  0  0  0  0
 22 23  1  0  0  0  0
 22 24  1  0  0  0  0
 22 25  1  0  0  0  0
 25 26  1  0  0  0  0
 25 27  1  0  0  0  0
 25 28  1  0  0  0  0
 28 29  1  0  0  0  0
 28 30  1  0  0  0  0
 28 31  1  0  0  0  0
 31 32  1  0  0  0  0
 31 33  1  0  0  0  0
 31 34  1  0  0  0  0
 34 35  1  0  0  0  0
 34 36  1  0  0  0  0
 34 37  1  0  0  0  0
 37 38  1  0  0  0  0
 37 39  1  0  0  0  0
 37 40  1  0  0  0  0
 40 41  1  0  0  0  0
 40 42  1  0  0  0  0
 40 43  1  0  0  0  0
 43 44  1  0  0  0  0
 43 45  1  0  0  0  0
 43 46  1  0  0  0  0
 46 47  1  0  0  0  0
 46 48  1  0  0  0  0
 46 49  1  0  0  0  0
 49 50  1  0  0  0  0
 49 51  1  0  0  0  0
 49 52  1  0  0  0  0
  1 53  1  0  0  0  0
M  END
> <ChemID>
104576

> <source_casrn>
3508-00-7

> <CAS>
3508-00-7

> <SMILES>
CCCCCCCCCCCCCCCCCBr

> <NAME>
1-BROMOHEPTADECANE

> <preferred_name>
Heptadecane,1-bromo-

> <iupac>
1-bromoheptadecane

> <MPID>
23474

> <dsstox_substance_id>
DTXSID0049280

> <Canonical_QSARr>
CCCCCCCCCCCCCCCCCBr

> <InChI_Code_QSARr>
InChI=1S/C17H35Br/c1-2-3-4-5-6-7-8-9-10-11-12-13-14-15-16-17-18/h2-17H2,1H3

> <InChI Key_QSARr>
HHSDZLLPIXMEIU-UHFFFAOYSA-N

> <Salt_Solvent>
?

> <BP>
349.0

$$$$
104580
  -INDIGO-08031720192D

 19 19  0  0  0  0  0  0  0  0999 V2000
    1.3856    0.8000    0.0000 N   0  0  0  0  0  0  0  0  0  0  0  0
    2.7713    0.0000    0.0000 C   0  0  0  0  0  0  0  0  0  0  0  0
    4.1570    0.8000    0.0000 C   0  0  0  0  0  0  0  0  0  0  0  0
    5.5426    1.6000    0.0000 H   0  0  0  0  0  0  0  0  0  0  0  0
    4.1570    2.4000    0.0000 H   0  0  0  0  0  0  0  0  0  0  0  0
    5.5426    0.0000    0.0000 H   0  0  0  0  0  0  0  0  0  0  0  0
    2.7713   -1.6000    0.0000 C   0  0  0  0  0  0  0  0  0  0  0  0
    4.1570   -2.4000    0.0000 H   0  0  0  0  0  0  0  0  0  0  0  0
    1.3856   -2.4000    0.0000 C   0  0  0  0  0  0  0  0  0  0  0  0
    1.3856   -4.0000    0.0000 N   0  0  0  0  0  0  0  0  0  0  0  0
    2.7713   -4.8000    0.0000 H   0  0  0  0  0  0  0  0  0  0  0  0
    0.0000   -4.8000    0.0000 H   0  0  0  0  0  0  0  0  0  0  0  0
    0.0000   -1.6000    0.0000 C   0  0  0  0  0  0  0  0  0  0  0  0
   -1.3857   -2.4000    0.0000 H   0  0  0  0  0  0  0  0  0  0  0  0
    0.0000    0.0000    0.0000 C   0  0  0  0  0  0  0  0  0  0  0  0
   -1.3856    0.8000    0.0000 C   0  0  0  0  0  0  0  0  0  0  0  0
   -2.7713    1.6000    0.0000 H   0  0  0  0  0  0  0  0  0  0  0  0
   -1.3856    2.4000    0.0000 H   0  0  0  0  0  0  0  0  0  0  0  0
   -2.7713    0.0000    0.0000 H   0  0  0  0  0  0  0  0  0  0  0  0
  1  2  1  0  0  0  0
  2  3  1  0  0  0  0
  3  4  1  0  0  0  0
  3  5  1  0  0  0  0
  3  6  1  0  0  0  0
  2  7  2  0  0  0  0
  7  8  1  0  0  0  0
  7  9  1  0  0  0  0
  9 10  1  0  0  0  0
 10 11  1  0  0  0  0
 10 12  1  0  0  0  0
  9 13  2  0  0  0  0
 13 14  1  0  0  0  0
 13 15  1  0  0  0  0
 15  1  2  0  0  0  0
 15 16  1  0  0  0  0
 16 17  1  0  0  0  0
 16 18  1  0  0  0  0
 16 19  1  0  0  0  0
M  END
> <ChemID>
104580

> <source_casrn>
3512-80-9

> <CAS>
3512-80-9

> <SMILES>
Cc1cc(N)cc(C)[n]1

> <NAME>
2,6-Dimethyl-pyridin-4-ylamine

> <preferred_name>
2,6-Dimethylpyridin-4-amine

> <iupac>
2,6-Dimethylpyridin-4-amine

> <MPID>
23478

> <dsstox_substance_id>
DTXSID10188621

> <Canonical_QSARr>
Cc1cc(N)cc(C)[n]1

> <InChI_Code_QSARr>
InChI=1S/C7H10N2/c1-5-3-7(8)4-6(2)9-5/h3-4H,1-2H3,(H2,8,9)

> <InChI Key_QSARr>
ZJXMKPARTVOUAM-UHFFFAOYSA-N

> <Salt_Solvent>
?

> <BP>
246.0

$$$$
104584
  -INDIGO-08031720192D

 22 22  0  0  0  0  0  0  0  0999 V2000
   -0.0000    0.0000    0.0000 C   0  0  0  0  0  0  0  0  0  0  0  0
    0.6508    1.4617    0.0000 H   0  0  0  0  0  0  0  0  0  0  0  0
   -0.3327   -1.5651    0.0000 C   0  0  0  0  0  0  0  0  0  0  0  0
    1.2586   -1.7322    0.0000 H   0  0  0  0  0  0  0  0  0  0  0  0
   -0.3327   -3.1650    0.0000 H   0  0  0  0  0  0  0  0  0  0  0  0
   -1.9239   -1.7322    0.0000 C   0  0  0  0  0  0  0  0  0  0  0  0
   -1.5912   -3.2973    0.0000 H   0  0  0  0  0  0  0  0  0  0  0  0
   -3.4456   -2.2267    0.0000 H   0  0  0  0  0  0  0  0  0  0  0  0
   -2.5747   -0.2706    0.0000 C   0  0  0  0  0  0  0  0  0  0  0  0
   -3.9603   -1.0706    0.0000 H   0  0  0  0  0  0  0  0  0  0  0  0
   -3.5151    1.0238    0.0000 H   0  0  0  0  0  0  0  0  0  0  0  0
   -1.3857    0.8000    0.0000 C   0  0  0  0  0  0  0  0  0  0  0  0
   -2.5747    1.8706    0.0000 H   0  0  0  0  0  0  0  0  0  0  0  0
   -0.4451    2.0944    0.0000 H   0  0  0  0  0  0  0  0  0  0  0  0
    1.5844   -0.2227    0.0000 C   0  0  0  0  0  0  0  0  0  0  0  0
    2.0120    1.3192    0.0000 H   0  0  0  0  0  0  0  0  0  0  0  0
    2.9770    0.5652    0.0000 H   0  0  0  0  0  0  0  0  0  0  0  0
    2.4323   -1.5795    0.0000 C   0  0  0  0  0  0  0  0  0  0  0  0
    1.6811   -2.9923    0.0000 H   0  0  0  0  0  0  0  0  0  0  0  0
    4.0313   -1.5237    0.0000 C   0  0  0  0  0  0  0  0  0  0  0  0
    4.8792   -2.8806    0.0000 H   0  0  0  0  0  0  0  0  0  0  0  0
    4.7825   -0.1110    0.0000 H   0  0  0  0  0  0  0  0  0  0  0  0
  1  2  1  0  0  0  0
  1  3  1  0  0  0  0
  3  4  1  0  0  0  0
  3  5  1  0  0  0  0
  3  6  1  0  0  0  0
  6  7  1  0  0  0  0
  6  8  1  0  0  0  0
  6  9  1  0  0  0  0
  9 10  1  0  0  0  0
  9 11  1  0  0  0  0
  9 12  1  0  0  0  0
 12  1  1  0  0  0  0
 12 13  1  0  0  0  0
 12 14  1  0  0  0  0
  1 15  1  0  0  0  0
 15 16  1  0  0  0  0
 15 17  1  0  0  0  0
 15 18  1  0  0  0  0
 18 19  1  0  0  0  0
 18 20  2  0  0  0  0
 20 21  1  0  0  0  0
 20 22  1  0  0  0  0
M  END
> <ChemID>
104584

> <source_casrn>
3524-75-2

> <CAS>
3524-75-2

> <SMILES>
C=CCC1CCCC1

> <NAME>
CYCLOPENTANE, 2-PROPENYL-

> <preferred_name>
3-Cyclopentylpropene

> <iupac>
prop-2-enylcyclopentane

> <MPID>
23482

> <dsstox_substance_id>
DTXSID20188733

> <Canonical_QSARr>
C=CCC1CCCC1

> <InChI_Code_QSARr>
InChI=1S/C8H14/c1-2-5-8-6-3-4-7-8/h2,8H,1,3-7H2

> <InChI Key_QSARr>
NHIDGVQVYHCGEK-UHFFFAOYSA-N

> <Salt_Solvent>
?

> <BP>
125.0

$$$$
104589
  -INDIGO-08031720192D

 11 11  0  0  0  0  0  0  0  0999 V2000
   -1.1890    1.0706    0.0000 S   0  0  0  0  0  0  0  0  0  0  0  0
   -0.0000    0.0000    0.0000 C   0  0  0  0  0  0  0  0  0  0  0  0
    1.5650    0.3327    0.0000 C   0  0  0  0  0  0  0  0  0  0  0  0
    3.1301    0.6653    0.0000 H   0  0  0  0  0  0  0  0  0  0  0  0
    2.0595    1.8543    0.0000 H   0  0  0  0  0  0  0  0  0  0  0  0
    2.6357   -0.8564    0.0000 H   0  0  0  0  0  0  0  0  0  0  0  0
   -0.6508   -1.4617    0.0000 N   0  0  0  0  0  0  0  0  0  0  0  0
   -2.2420   -1.2944    0.0000 C   0  0  0  0  0  0  0  0  0  0  0  0
   -3.3126   -2.4835    0.0000 H   0  0  0  0  0  0  0  0  0  0  0  0
   -2.5746    0.2706    0.0000 C   0  0  0  0  0  0  0  0  0  0  0  0
   -4.0363    0.9214    0.0000 H   0  0  0  0  0  0  0  0  0  0  0  0
  1  2  1  0  0  0  0
  2  3  1  0  0  0  0
  3  4  1  0  0  0  0
  3  5  1  0  0  0  0
  3  6  1  0  0  0  0
  2  7  2  0  0  0  0
  7  8  1  0  0  0  0
  8  9  1  0  0  0  0
  8 10  2  0  0  0  0
 10  1  1  0  0  0  0
 10 11  1  0  0  0  0
M  END
> <ChemID>
104589

> <source_casrn>
3581-87-1

> <CAS>
3581-87-1

> <SMILES>
Cc1[n]cc[s]1

> <NAME>
2-Methyl-thiazole

> <preferred_name>
2-Methylthiazole

> <iupac>


> <MPID>
23486

> <dsstox_substance_id>
DTXSID20189346

> <Canonical_QSARr>
Cc1[n]cc[s]1

> <InChI_Code_QSARr>
InChI=1S/C4H5NS/c1-4-5-2-3-6-4/h2-3H,1H3

> <InChI Key_QSARr>
VZWOXDYRBDIHMA-UHFFFAOYSA-N

> <Salt_Solvent>
?

> <BP>
128.5

$$$$
104593
  -INDIGO-08031720192D

 26 27  0  0  0  0  0  0  0  0999 V2000
   -0.0001    0.0000    0.0000 C   0  0  0  0  0  0  0  0  0  0  0  0
   -0.0001   -1.6000    0.0000 C   0  0  0  0  0  0  0  0  0  0  0  0
    1.3857   -2.4000    0.0000 H   0  0  0  0  0  0  0  0  0  0  0  0
   -1.3857   -2.4000    0.0000 C   0  0  0  0  0  0  0  0  0  0  0  0
   -1.3857   -4.0000    0.0000 H   0  0  0  0  0  0  0  0  0  0  0  0
   -2.7713   -1.6000    0.0000 C   0  0  0  0  0  0  0  0  0  0  0  0
   -4.1568   -2.4000    0.0000 H   0  0  0  0  0  0  0  0  0  0  0  0
   -2.7713    0.0000    0.0000 C   0  0  0  0  0  0  0  0  0  0  0  0
   -4.1568    0.8000    0.0000 O   0  0  0  0  0  0  0  0  0  0  0  0
   -5.7326    0.5222    0.0000 C   0  0  0  0  0  0  0  0  0  0  0  0
   -6.2799   -0.9813    0.0000 C   0  0  0  0  0  0  0  0  0  0  0  0
   -5.2513   -2.2071    0.0000 H   0  0  0  0  0  0  0  0  0  0  0  0
   -7.8555   -1.2591    0.0000 C   0  0  0  0  0  0  0  0  0  0  0  0
   -8.4028   -2.7627    0.0000 H   0  0  0  0  0  0  0  0  0  0  0  0
   -8.8839   -0.0335    0.0000 C   0  0  0  0  0  0  0  0  0  0  0  0
  -10.4597   -0.3113    0.0000 H   0  0  0  0  0  0  0  0  0  0  0  0
   -8.3368    1.4700    0.0000 C   0  0  0  0  0  0  0  0  0  0  0  0
   -9.3652    2.6957    0.0000 H   0  0  0  0  0  0  0  0  0  0  0  0
   -6.7610    1.7479    0.0000 C   0  0  0  0  0  0  0  0  0  0  0  0
   -6.2139    3.2513    0.0000 H   0  0  0  0  0  0  0  0  0  0  0  0
   -1.3857    0.8000    0.0000 C   0  0  0  0  0  0  0  0  0  0  0  0
   -1.3857    2.4000    0.0000 H   0  0  0  0  0  0  0  0  0  0  0  0
    1.3857    0.8000    0.0000 C   0  0  0  0  0  0  0  0  0  0  0  0
    2.7713    1.6000    0.0000 H   0  0  0  0  0  0  0  0  0  0  0  0
    2.7713    0.0000    0.0000 H   0  0  0  0  0  0  0  0  0  0  0  0
    1.3857    2.4000    0.0000 H   0  0  0  0  0  0  0  0  0  0  0  0
  1  2  1  0  0  0  0
  2  3  1  0  0  0  0
  2  4  2  0  0  0  0
  4  5  1  0  0  0  0
  4  6  1  0  0  0  0
  6  7  1  0  0  0  0
  6  8  2  0  0  0  0
  8  9  1  0  0  0  0
  9 10  1  0  0  0  0
 10 11  1  0  0  0  0
 11 12  1  0  0  0  0
 11 13  2  0  0  0  0
 13 14  1  0  0  0  0
 13 15  1  0  0  0  0
 15 16  1  0  0  0  0
 15 17  2  0  0  0  0
 17 18  1  0  0  0  0
 17 19  1  0  0  0  0
 19 10  2  0  0  0  0
 19 20  1  0  0  0  0
  8 21  1  0  0  0  0
 21  1  2  0  0  0  0
 21 22  1  0  0  0  0
  1 23  1  0  0  0  0
 23 24  1  0  0  0  0
 23 25  1  0  0  0  0
 23 26  1  0  0  0  0
M  END
> <ChemID>
104593

> <source_casrn>
3586-14-9

> <CAS>
3586-14-9

> <SMILES>
Cc1cc(ccc1)Oc1ccccc1

> <NAME>
Benzene, 1-methyl-3-phenoxy-

> <preferred_name>
1-Methyl-3-phenoxybenzene

> <iupac>
1-methyl-3-phenoxybenzene

> <MPID>
23490

> <dsstox_substance_id>
DTXSID8027537

> <Canonical_QSARr>
Cc1cc(ccc1)Oc1ccccc1

> <InChI_Code_QSARr>
InChI=1S/C13H12O/c1-11-6-5-9-13(10-11)14-12-7-3-2-4-8-12/h2-10H,1H3

> <InChI Key_QSARr>
UDONPJKEOAWFGI-UHFFFAOYSA-N

> <Salt_Solvent>
?

> <BP>
272.0

$$$$
104597
  -INDIGO-08031720192D

 29 29  0  0  0  0  0  0  0  0999 V2000
   -5.6000    1.3857    0.0000 C   0  0  0  0  0  0  0  0  0  0  0  0
   -6.4000    2.7713    0.0000 C   0  0  0  0  0  0  0  0  0  0  0  0
   -5.6000    4.1569    0.0000 H   0  0  0  0  0  0  0  0  0  0  0  0
   -8.0001    2.7713    0.0000 C   0  0  0  0  0  0  0  0  0  0  0  0
   -8.7999    4.1569    0.0000 H   0  0  0  0  0  0  0  0  0  0  0  0
   -8.7999    1.3857    0.0000 C   0  0  0  0  0  0  0  0  0  0  0  0
  -10.4000    1.3857    0.0000 H   0  0  0  0  0  0  0  0  0  0  0  0
   -7.9999    0.0000    0.0000 C   0  0  0  0  0  0  0  0  0  0  0  0
   -8.7999   -1.3856    0.0000 H   0  0  0  0  0  0  0  0  0  0  0  0
   -6.4000    0.0000    0.0000 C   0  0  0  0  0  0  0  0  0  0  0  0
   -5.6000   -1.3856    0.0000 H   0  0  0  0  0  0  0  0  0  0  0  0
   -3.9999    1.3857    0.0000 S   0  0  0  0  0  0  0  0  0  0  0  0
   -3.9999    2.9857    0.0000 O   0  0  0  0  0  0  0  0  0  0  0  0
   -2.4001    1.3857    0.0000 N   0  0  0  0  0  0  0  0  0  0  0  0
   -1.6000    2.7713    0.0000 H   0  0  0  0  0  0  0  0  0  0  0  0
   -1.6000    0.0000    0.0000 C   0  0  0  0  0  0  0  0  0  0  0  0
   -1.8088   -1.5863    0.0000 H   0  0  0  0  0  0  0  0  0  0  0  0
   -2.8694   -0.9740    0.0000 H   0  0  0  0  0  0  0  0  0  0  0  0
    0.0000    0.0000    0.0000 C   0  0  0  0  0  0  0  0  0  0  0  0
    0.2088    1.5864    0.0000 H   0  0  0  0  0  0  0  0  0  0  0  0
    1.2694    0.9740    0.0000 H   0  0  0  0  0  0  0  0  0  0  0  0
    0.8001   -1.3856    0.0000 C   0  0  0  0  0  0  0  0  0  0  0  0
    0.5911   -2.9720    0.0000 H   0  0  0  0  0  0  0  0  0  0  0  0
   -0.4693   -2.3596    0.0000 H   0  0  0  0  0  0  0  0  0  0  0  0
    2.3999   -1.3856    0.0000 C   0  0  0  0  0  0  0  0  0  0  0  0
    4.0000   -1.3856    0.0000 H   0  0  0  0  0  0  0  0  0  0  0  0
    3.2000   -2.7713    0.0000 H   0  0  0  0  0  0  0  0  0  0  0  0
    3.2000    0.0000    0.0000 H   0  0  0  0  0  0  0  0  0  0  0  0
   -3.9999   -0.2144    0.0000 O   0  0  0  0  0  0  0  0  0  0  0  0
  1  2  1  0  0  0  0
  2  3  1  0  0  0  0
  2  4  2  0  0  0  0
  4  5  1  0  0  0  0
  4  6  1  0  0  0  0
  6  7  1  0  0  0  0
  6  8  2  0  0  0  0
  8  9  1  0  0  0  0
  8 10  1  0  0  0  0
 10  1  2  0  0  0  0
 10 11  1  0  0  0  0
  1 12  1  0  0  0  0
 12 13  2  0  0  0  0
 12 14  1  0  0  0  0
 14 15  1  0  0  0  0
 14 16  1  0  0  0  0
 16 17  1  0  0  0  0
 16 18  1  0  0  0  0
 16 19  1  0  0  0  0
 19 20  1  0  0  0  0
 19 21  1  0  0  0  0
 19 22  1  0  0  0  0
 22 23  1  0  0  0  0
 22 24  1  0  0  0  0
 22 25  1  0  0  0  0
 25 26  1  0  0  0  0
 25 27  1  0  0  0  0
 25 28  1  0  0  0  0
 12 29  2  0  0  0  0
M  END
> <ChemID>
104597

> <source_casrn>
3622-84-2

> <CAS>
3622-84-2

> <SMILES>
CCCCNS(=O)(=O)c1ccccc1

> <NAME>
N-Butylbenzenesulfonamide

> <preferred_name>
N-Butylbenzenesulfonamide

> <iupac>
N-butylbenzenesulfonamide

> <MPID>
23494

> <dsstox_substance_id>
DTXSID7027540

> <Canonical_QSARr>
CCCCNS(=O)(=O)c1ccccc1

> <InChI_Code_QSARr>
InChI=1S/C10H15NO2S/c1-2-3-9-11-14(12,13)10-7-5-4-6-8-10/h4-8,11H,2-3,9H2,1H3

> <InChI Key_QSARr>
IPRJXAGUEGOFGG-UHFFFAOYSA-N

> <Salt_Solvent>
?

> <BP>
314.0

$$$$
104601
  -INDIGO-08031720192D

  8  7  0  0  0  0  0  0  0  0999 V2000
    1.3856    0.8000    0.0000 C   0  0  0  0  0  0  0  0  0  0  0  0
    2.7713    0.0000    0.0000 H   0  0  0  0  0  0  0  0  0  0  0  0
    1.3856    2.4000    0.0000 H   0  0  0  0  0  0  0  0  0  0  0  0
    0.0000    0.0000    0.0000 C   0  0  0  0  0  0  0  0  0  0  0  0
    0.0000   -1.6000    0.0000 H   0  0  0  0  0  0  0  0  0  0  0  0
   -1.3856    0.8000    0.0000 N   0  0  0  0  0  0  0  0  0  0  0  0
   -2.7713    0.0000    0.0000 O   0  0  0  0  0  0  0  0  0  0  0  0
   -1.3856    2.4000    0.0000 O   0  0  0  0  0  0  0  0  0  0  0  0
  1  2  1  0  0  0  0
  1  3  1  0  0  0  0
  1  4  2  0  0  0  0
  4  5  1  0  0  0  0
  4  6  1  0  0  0  0
  6  7  2  0  0  0  0
  6  8  1  0  0  0  0
M  CHG  2   6   1   8  -1
M  END
> <ChemID>
104601

> <source_casrn>
3638-64-0

> <CAS>
3638-64-0

> <SMILES>
C=C[N+]([O-])=O

> <NAME>
Nitroethene

> <preferred_name>
Ethene, nitro-

> <iupac>
1-nitroethene

> <MPID>
23498

> <dsstox_substance_id>
DTXSID0075235

> <Canonical_QSARr>
C=C[N+]([O-])=O

> <InChI_Code_QSARr>
InChI=1S/C2H3NO2/c1-2-3(4)5/h2H,1H2

> <InChI Key_QSARr>
RPMXALUWKZHYOV-UHFFFAOYSA-N

> <Salt_Solvent>
?

> <BP>
98.5

$$$$
104605
  -INDIGO-08031720192D

 14 13  0  0  0  0  0  0  0  0999 V2000
    1.3856   -0.8000    0.0000 C   0  0  0  0  0  0  0  0  0  0  0  0
    2.7713   -1.6000    0.0000 H   0  0  0  0  0  0  0  0  0  0  0  0
    0.0000    0.0000    0.0000 C   0  0  0  0  0  0  0  0  0  0  0  0
    0.6123    1.4782    0.0000 H   0  0  0  0  0  0  0  0  0  0  0  0
   -1.3856   -0.8000    0.0000 C   0  0  0  0  0  0  0  0  0  0  0  0
   -1.9980   -2.2782    0.0000 H   0  0  0  0  0  0  0  0  0  0  0  0
   -0.7733   -2.2782    0.0000 H   0  0  0  0  0  0  0  0  0  0  0  0
   -2.7713    0.0000    0.0000 C   0  0  0  0  0  0  0  0  0  0  0  0
   -4.1569    0.8000    0.0000 H   0  0  0  0  0  0  0  0  0  0  0  0
   -4.1569   -0.8000    0.0000 H   0  0  0  0  0  0  0  0  0  0  0  0
   -2.7713    1.6000    0.0000 H   0  0  0  0  0  0  0  0  0  0  0  0
   -0.6123    1.4782    0.0000 Br  0  0  0  0  0  0  0  0  0  0  0  0
    2.7713    0.0000    0.0000 Br  0  0  0  0  0  0  0  0  0  0  0  0
    1.3856   -2.4000    0.0000 Br  0  0  0  0  0  0  0  0  0  0  0  0
  1  2  1  0  0  0  0
  1  3  1  0  0  0  0
  3  4  1  0  0  0  0
  3  5  1  0  0  0  0
  5  6  1  0  0  0  0
  5  7  1  0  0  0  0
  5  8  1  0  0  0  0
  8  9  1  0  0  0  0
  8 10  1  0  0  0  0
  8 11  1  0  0  0  0
  3 12  1  0  0  0  0
  1 13  1  0  0  0  0
  1 14  1  0  0  0  0
M  END
> <ChemID>
104605

> <source_casrn>
3675-68-1

> <CAS>
NOCAS_871039

> <SMILES>
CCC(Br)C(Br)Br

> <NAME>
Butane, 1,1,2-tribromo-

> <preferred_name>


> <iupac>


> <MPID>
23502

> <dsstox_substance_id>
DTXSID40871039

> <Canonical_QSARr>
CCC(Br)C(Br)Br

> <InChI_Code_QSARr>
InChI=1S/C4H7Br3/c1-2-3(5)4(6)7/h3-4H,2H2,1H3

> <InChI Key_QSARr>
WMGQSHQUFZATPG-UHFFFAOYSA-N

> <Salt_Solvent>
?

> <BP>
216.2

$$$$
104609
  -INDIGO-08031720192D

 22 21  0  0  0  0  0  0  0  0999 V2000
   -0.0001    0.0000    0.0000 C   0  0  0  0  0  0  0  0  0  0  0  0
    0.6123    1.4782    0.0000 H   0  0  0  0  0  0  0  0  0  0  0  0
   -0.6122    1.4782    0.0000 H   0  0  0  0  0  0  0  0  0  0  0  0
   -1.3856   -0.8000    0.0000 C   0  0  0  0  0  0  0  0  0  0  0  0
   -1.9979   -2.2782    0.0000 H   0  0  0  0  0  0  0  0  0  0  0  0
   -0.7734   -2.2782    0.0000 H   0  0  0  0  0  0  0  0  0  0  0  0
   -2.7713    0.0000    0.0000 C   0  0  0  0  0  0  0  0  0  0  0  0
   -2.1589    1.4782    0.0000 H   0  0  0  0  0  0  0  0  0  0  0  0
   -3.3836    1.4782    0.0000 H   0  0  0  0  0  0  0  0  0  0  0  0
   -4.1570   -0.8000    0.0000 C   0  0  0  0  0  0  0  0  0  0  0  0
   -4.1570   -2.4000    0.0000 H   0  0  0  0  0  0  0  0  0  0  0  0
   -5.5425    0.0000    0.0000 C   0  0  0  0  0  0  0  0  0  0  0  0
   -6.9282   -0.8000    0.0000 H   0  0  0  0  0  0  0  0  0  0  0  0
   -5.5425    1.6000    0.0000 H   0  0  0  0  0  0  0  0  0  0  0  0
    1.3856   -0.8000    0.0000 C   0  0  0  0  0  0  0  0  0  0  0  0
    0.7733   -2.2782    0.0000 H   0  0  0  0  0  0  0  0  0  0  0  0
    1.9980   -2.2782    0.0000 H   0  0  0  0  0  0  0  0  0  0  0  0
    2.7713    0.0000    0.0000 C   0  0  0  0  0  0  0  0  0  0  0  0
    2.7713    1.6000    0.0000 H   0  0  0  0  0  0  0  0  0  0  0  0
    4.1569   -0.8000    0.0000 C   0  0  0  0  0  0  0  0  0  0  0  0
    5.5426    0.0000    0.0000 H   0  0  0  0  0  0  0  0  0  0  0  0
    4.1569   -2.4000    0.0000 H   0  0  0  0  0  0  0  0  0  0  0  0
  1  2  1  0  0  0  0
  1  3  1  0  0  0  0
  1  4  1  0  0  0  0
  4  5  1  0  0  0  0
  4  6  1  0  0  0  0
  4  7  1  0  0  0  0
  7  8  1  0  0  0  0
  7  9  1  0  0  0  0
  7 10  1  0  0  0  0
 10 11  1  0  0  0  0
 10 12  2  0  0  0  0
 12 13  1  0  0  0  0
 12 14  1  0  0  0  0
  1 15  1  0  0  0  0
 15 16  1  0  0  0  0
 15 17  1  0  0  0  0
 15 18  1  0  0  0  0
 18 19  1  0  0  0  0
 18 20  2  0  0  0  0
 20 21  1  0  0  0  0
 20 22  1  0  0  0  0
M  END
> <ChemID>
104609

> <source_casrn>
3710-30-3

> <CAS>
3710-30-3

> <SMILES>
C=CCCCCC=C

> <NAME>
1,7-Octadiene

> <preferred_name>
1,7-Octadiene

> <iupac>
Octa-1,7-diene

> <MPID>
23506

> <dsstox_substance_id>
DTXSID6063147

> <Canonical_QSARr>
C=CCCCCC=C

> <InChI_Code_QSARr>
InChI=1S/C8H14/c1-3-5-7-8-6-4-2/h3-4H,1-2,5-8H2

> <InChI Key_QSARr>
XWJBRBSPAODJER-UHFFFAOYSA-N

> <Salt_Solvent>
?

> <BP>
115.5

$$$$
104613
  -INDIGO-08031720192D

 15 15  0  0  0  0  0  0  0  0999 V2000
    2.7292    0.4812    0.0000 O   0  0  0  0  0  0  0  0  0  0  0  0
    4.2327   -0.0660    0.0000 H   0  0  0  0  0  0  0  0  0  0  0  0
    1.5035   -0.5472    0.0000 C   0  0  0  0  0  0  0  0  0  0  0  0
    1.7813   -2.1229    0.0000 O   0  0  0  0  0  0  0  0  0  0  0  0
   -0.0000    0.0000    0.0000 C   0  0  0  0  0  0  0  0  0  0  0  0
    0.7999    1.3856    0.0000 H   0  0  0  0  0  0  0  0  0  0  0  0
   -0.8000   -1.3857    0.0000 C   0  0  0  0  0  0  0  0  0  0  0  0
    0.5856   -2.1856    0.0000 H   0  0  0  0  0  0  0  0  0  0  0  0
   -1.6000   -2.7713    0.0000 H   0  0  0  0  0  0  0  0  0  0  0  0
   -2.1857   -0.5857    0.0000 C   0  0  0  0  0  0  0  0  0  0  0  0
   -2.9856   -1.9713    0.0000 H   0  0  0  0  0  0  0  0  0  0  0  0
   -3.5713    0.2144    0.0000 H   0  0  0  0  0  0  0  0  0  0  0  0
   -1.3857    0.8000    0.0000 C   0  0  0  0  0  0  0  0  0  0  0  0
   -2.7713    1.6000    0.0000 H   0  0  0  0  0  0  0  0  0  0  0  0
   -0.5857    2.1856    0.0000 H   0  0  0  0  0  0  0  0  0  0  0  0
  1  2  1  0  0  0  0
  1  3  1  0  0  0  0
  3  4  2  0  0  0  0
  3  5  1  0  0  0  0
  5  6  1  0  0  0  0
  5  7  1  0  0  0  0
  7  8  1  0  0  0  0
  7  9  1  0  0  0  0
  7 10  1  0  0  0  0
 10 11  1  0  0  0  0
 10 12  1  0  0  0  0
 10 13  1  0  0  0  0
 13  5  1  0  0  0  0
 13 14  1  0  0  0  0
 13 15  1  0  0  0  0
M  END
> <ChemID>
104613

> <source_casrn>
3721-95-7

> <CAS>
3721-95-7

> <SMILES>
OC(=O)C1CCC1

> <NAME>
Cyclobutanecarboxylic acid

> <preferred_name>
Cyclobutanecarboxylic acid

> <iupac>
cyclobutanecarboxylic acid

> <MPID>
23510

> <dsstox_substance_id>
DTXSID3057725

> <Canonical_QSARr>
OC(=O)C1CCC1

> <InChI_Code_QSARr>
InChI=1S/C5H8O2/c6-5(7)4-2-1-3-4/h4H,1-3H2,(H,6,7)

> <InChI Key_QSARr>
TXWOGHSRPAYOML-UHFFFAOYSA-N

> <Salt_Solvent>
?

> <BP>
190.0

$$$$
104618
  -INDIGO-08031720192D

 16 16  0  0  0  0  0  0  0  0999 V2000
    3.2000   -0.0000    0.0000 N   0  0  0  0  0  0  0  0  0  0  0  0
    2.4000    1.3856    0.0000 C   0  0  0  0  0  0  0  0  0  0  0  0
    3.2000    2.7713    0.0000 H   0  0  0  0  0  0  0  0  0  0  0  0
    0.8000    1.3856    0.0000 C   0  0  0  0  0  0  0  0  0  0  0  0
   -0.0000    2.7713    0.0000 H   0  0  0  0  0  0  0  0  0  0  0  0
   -0.0000   -0.0000    0.0000 C   0  0  0  0  0  0  0  0  0  0  0  0
   -1.6000   -0.0000    0.0000 C   0  0  0  0  0  0  0  0  0  0  0  0
   -1.8089   -1.5863    0.0000 H   0  0  0  0  0  0  0  0  0  0  0  0
   -2.8694   -0.9740    0.0000 H   0  0  0  0  0  0  0  0  0  0  0  0
   -2.4000    1.3856    0.0000 N   0  0  0  0  0  0  0  0  0  0  0  0
   -4.0000    1.3856    0.0000 H   0  0  0  0  0  0  0  0  0  0  0  0
   -1.6000    2.7713    0.0000 H   0  0  0  0  0  0  0  0  0  0  0  0
    0.8000   -1.3856    0.0000 C   0  0  0  0  0  0  0  0  0  0  0  0
   -0.0000   -2.7713    0.0000 H   0  0  0  0  0  0  0  0  0  0  0  0
    2.4000   -1.3856    0.0000 C   0  0  0  0  0  0  0  0  0  0  0  0
    3.2000   -2.7713    0.0000 H   0  0  0  0  0  0  0  0  0  0  0  0
  1  2  1  0  0  0  0
  2  3  1  0  0  0  0
  2  4  2  0  0  0  0
  4  5  1  0  0  0  0
  4  6  1  0  0  0  0
  6  7  1  0  0  0  0
  7  8  1  0  0  0  0
  7  9  1  0  0  0  0
  7 10  1  0  0  0  0
 10 11  1  0  0  0  0
 10 12  1  0  0  0  0
  6 13  2  0  0  0  0
 13 14  1  0  0  0  0
 13 15  1  0  0  0  0
 15  1  2  0  0  0  0
 15 16  1  0  0  0  0
M  END
> <ChemID>
104618

> <source_casrn>
3731-53-1

> <CAS>
3731-53-1

> <SMILES>
NCc1cc[n]cc1

> <NAME>
4-PYRIDINEMETHANEAMINE

> <preferred_name>
4-Pyridinemethanamine

> <iupac>
pyridin-4-ylmethanamine

> <MPID>
23515

> <dsstox_substance_id>
DTXSID0063153

> <Canonical_QSARr>
NCc1cc[n]cc1

> <InChI_Code_QSARr>
InChI=1S/C6H8N2/c7-5-6-1-3-8-4-2-6/h1-4H,5,7H2

> <InChI Key_QSARr>
TXQWFIVRZNOPCK-UHFFFAOYSA-N

> <Salt_Solvent>
?

> <BP>
230.0

$$$$
104622
  -INDIGO-08031720192D

 26 26  0  0  0  0  0  0  0  0999 V2000
   -0.0001   -0.0000    0.0000 C   0  0  0  0  0  0  0  0  0  0  0  0
   -0.0001   -1.6000    0.0000 C   0  0  0  0  0  0  0  0  0  0  0  0
    1.3856   -2.4000    0.0000 H   0  0  0  0  0  0  0  0  0  0  0  0
   -1.3856   -2.4000    0.0000 C   0  0  0  0  0  0  0  0  0  0  0  0
   -1.3856   -4.0000    0.0000 H   0  0  0  0  0  0  0  0  0  0  0  0
   -2.7712   -1.6000    0.0000 C   0  0  0  0  0  0  0  0  0  0  0  0
   -4.1569   -2.4000    0.0000 H   0  0  0  0  0  0  0  0  0  0  0  0
   -2.7712   -0.0000    0.0000 C   0  0  0  0  0  0  0  0  0  0  0  0
   -4.1569    0.8000    0.0000 C   0  0  0  0  0  0  0  0  0  0  0  0
   -4.1569    2.4000    0.0000 C   0  0  0  0  0  0  0  0  0  0  0  0
   -5.5425    3.2000    0.0000 H   0  0  0  0  0  0  0  0  0  0  0  0
   -2.7712    3.2000    0.0000 H   0  0  0  0  0  0  0  0  0  0  0  0
   -5.5425   -0.0000    0.0000 C   0  0  0  0  0  0  0  0  0  0  0  0
   -6.9282   -0.8000    0.0000 H   0  0  0  0  0  0  0  0  0  0  0  0
   -6.9282    0.8000    0.0000 H   0  0  0  0  0  0  0  0  0  0  0  0
   -5.5425   -1.6000    0.0000 H   0  0  0  0  0  0  0  0  0  0  0  0
   -1.3856    0.8000    0.0000 C   0  0  0  0  0  0  0  0  0  0  0  0
   -1.3856    2.4000    0.0000 H   0  0  0  0  0  0  0  0  0  0  0  0
    1.3856    0.8000    0.0000 C   0  0  0  0  0  0  0  0  0  0  0  0
    1.3856    2.4000    0.0000 C   0  0  0  0  0  0  0  0  0  0  0  0
    2.7713    3.2000    0.0000 H   0  0  0  0  0  0  0  0  0  0  0  0
   -0.0001    3.2000    0.0000 H   0  0  0  0  0  0  0  0  0  0  0  0
    2.7713   -0.0000    0.0000 C   0  0  0  0  0  0  0  0  0  0  0  0
    4.1569   -0.8000    0.0000 H   0  0  0  0  0  0  0  0  0  0  0  0
    4.1569    0.8000    0.0000 H   0  0  0  0  0  0  0  0  0  0  0  0
    2.7713   -1.6000    0.0000 H   0  0  0  0  0  0  0  0  0  0  0  0
  1  2  1  0  0  0  0
  2  3  1  0  0  0  0
  2  4  2  0  0  0  0
  4  5  1  0  0  0  0
  4  6  1  0  0  0  0
  6  7  1  0  0  0  0
  6  8  2  0  0  0  0
  8  9  1  0  0  0  0
  9 10  2  0  0  0  0
 10 11  1  0  0  0  0
 10 12  1  0  0  0  0
  9 13  1  0  0  0  0
 13 14  1  0  0  0  0
 13 15  1  0  0  0  0
 13 16  1  0  0  0  0
  8 17  1  0  0  0  0
 17  1  2  0  0  0  0
 17 18  1  0  0  0  0
  1 19  1  0  0  0  0
 19 20  2  0  0  0  0
 20 21  1  0  0  0  0
 20 22  1  0  0  0  0
 19 23  1  0  0  0  0
 23 24  1  0  0  0  0
 23 25  1  0  0  0  0
 23 26  1  0  0  0  0
M  END
> <ChemID>
104622

> <source_casrn>
3748-13-8

> <CAS>
3748-13-8

> <SMILES>
CC(=C)c1cc(ccc1)C(C)=C

> <NAME>
Benzene, 1,3-bis(1-methylethenyl)-

> <preferred_name>
1,3-Diisopropenylbenzene

> <iupac>
1,3-di(prop-1-en-2-yl)benzene

> <MPID>
23519

> <dsstox_substance_id>
DTXSID7027546

> <Canonical_QSARr>
CC(=C)c1cc(ccc1)C(C)=C

> <InChI_Code_QSARr>
InChI=1S/C12H14/c1-9(2)11-6-5-7-12(8-11)10(3)4/h5-8H,1,3H2,2,4H3

> <InChI Key_QSARr>
IBVPVTPPYGGAEL-UHFFFAOYSA-N

> <Salt_Solvent>
?

> <BP>
231.0

$$$$
104626
  -INDIGO-08031720192D

 19 19  0  0  0  0  0  0  0  0999 V2000
    2.4000    1.3856    0.0000 N   0  0  0  0  0  0  0  0  0  0  0  0
    3.2000    2.7713    0.0000 H   0  0  0  0  0  0  0  0  0  0  0  0
    0.8000    1.3856    0.0000 C   0  0  0  0  0  0  0  0  0  0  0  0
    0.0000    2.7713    0.0000 O   0  0  0  0  0  0  0  0  0  0  0  0
    0.0000    0.0000    0.0000 C   0  0  0  0  0  0  0  0  0  0  0  0
   -1.2257   -1.0284    0.0000 H   0  0  0  0  0  0  0  0  0  0  0  0
   -1.2257    1.0284    0.0000 C   0  0  0  0  0  0  0  0  0  0  0  0
   -2.4513    2.0569    0.0000 H   0  0  0  0  0  0  0  0  0  0  0  0
   -2.7292    0.4812    0.0000 H   0  0  0  0  0  0  0  0  0  0  0  0
   -0.9479    2.6041    0.0000 H   0  0  0  0  0  0  0  0  0  0  0  0
    0.8000   -1.3857    0.0000 C   0  0  0  0  0  0  0  0  0  0  0  0
   -0.7035   -1.9329    0.0000 H   0  0  0  0  0  0  0  0  0  0  0  0
    1.0778   -2.9613    0.0000 H   0  0  0  0  0  0  0  0  0  0  0  0
    2.4000   -1.3857    0.0000 C   0  0  0  0  0  0  0  0  0  0  0  0
    2.1222   -2.9613    0.0000 H   0  0  0  0  0  0  0  0  0  0  0  0
    3.9035   -1.9329    0.0000 H   0  0  0  0  0  0  0  0  0  0  0  0
    3.2000    0.0000    0.0000 C   0  0  0  0  0  0  0  0  0  0  0  0
    4.4257   -1.0284    0.0000 H   0  0  0  0  0  0  0  0  0  0  0  0
    4.4257    1.0284    0.0000 H   0  0  0  0  0  0  0  0  0  0  0  0
  1  2  1  0  0  0  0
  1  3  1  0  0  0  0
  3  4  2  0  0  0  0
  3  5  1  0  0  0  0
  5  6  1  0  0  0  0
  5  7  1  0  0  0  0
  7  8  1  0  0  0  0
  7  9  1  0  0  0  0
  7 10  1  0  0  0  0
  5 11  1  0  0  0  0
 11 12  1  0  0  0  0
 11 13  1  0  0  0  0
 11 14  1  0  0  0  0
 14 15  1  0  0  0  0
 14 16  1  0  0  0  0
 14 17  1  0  0  0  0
 17  1  1  0  0  0  0
 17 18  1  0  0  0  0
 17 19  1  0  0  0  0
M  END
> <ChemID>
104626

> <source_casrn>
3768-43-2

> <CAS>
NOCAS_871042

> <SMILES>
CC1CCCNC1=O

> <NAME>
3-Methyl-piperidin-2-one

> <preferred_name>


> <iupac>


> <MPID>
23523

> <dsstox_substance_id>
DTXSID70871042

> <Canonical_QSARr>
CC1CCCNC1=O

> <InChI_Code_QSARr>
InChI=1S/C6H11NO/c1-5-3-2-4-7-6(5)8/h5H,2-4H2,1H3,(H,7,8)

> <InChI Key_QSARr>
PHGAOXNFCZKFTR-UHFFFAOYSA-N

> <Salt_Solvent>
?

> <BP>
249.5

$$$$
104630
  -INDIGO-08031720192D

 27 27  0  0  0  0  0  0  0  0999 V2000
    0.0000   -0.0000    0.0000 C   0  0  0  0  0  0  0  0  0  0  0  0
    0.1673    1.5912    0.0000 H   0  0  0  0  0  0  0  0  0  0  0  0
   -0.4944   -1.5217    0.0000 C   0  0  0  0  0  0  0  0  0  0  0  0
   -1.9561   -0.8709    0.0000 H   0  0  0  0  0  0  0  0  0  0  0  0
   -1.2944   -2.9073    0.0000 H   0  0  0  0  0  0  0  0  0  0  0  0
    0.7999   -2.4622    0.0000 C   0  0  0  0  0  0  0  0  0  0  0  0
   -0.2706   -3.6512    0.0000 H   0  0  0  0  0  0  0  0  0  0  0  0
    1.8706   -3.6512    0.0000 H   0  0  0  0  0  0  0  0  0  0  0  0
    2.0944   -1.5217    0.0000 C   0  0  0  0  0  0  0  0  0  0  0  0
    2.8944   -2.9073    0.0000 H   0  0  0  0  0  0  0  0  0  0  0  0
    3.5561   -0.8709    0.0000 H   0  0  0  0  0  0  0  0  0  0  0  0
    1.6000   -0.0000    0.0000 C   0  0  0  0  0  0  0  0  0  0  0  0
    3.1651    0.3326    0.0000 H   0  0  0  0  0  0  0  0  0  0  0  0
    1.4327    1.5912    0.0000 H   0  0  0  0  0  0  0  0  0  0  0  0
   -1.5651    0.3326    0.0000 C   0  0  0  0  0  0  0  0  0  0  0  0
   -0.9015    1.7886    0.0000 H   0  0  0  0  0  0  0  0  0  0  0  0
   -2.1253    1.8313    0.0000 H   0  0  0  0  0  0  0  0  0  0  0  0
   -2.9778   -0.4185    0.0000 C   0  0  0  0  0  0  0  0  0  0  0  0
   -2.2266   -1.8312    0.0000 H   0  0  0  0  0  0  0  0  0  0  0  0
   -4.3905   -1.1697    0.0000 C   0  0  0  0  0  0  0  0  0  0  0  0
   -5.8032   -1.9208    0.0000 H   0  0  0  0  0  0  0  0  0  0  0  0
   -5.7473   -0.3217    0.0000 H   0  0  0  0  0  0  0  0  0  0  0  0
   -4.4463   -2.7687    0.0000 H   0  0  0  0  0  0  0  0  0  0  0  0
   -3.7290    0.9942    0.0000 C   0  0  0  0  0  0  0  0  0  0  0  0
   -4.4800    2.4069    0.0000 H   0  0  0  0  0  0  0  0  0  0  0  0
   -3.1296    2.4777    0.0000 H   0  0  0  0  0  0  0  0  0  0  0  0
   -5.3279    1.0500    0.0000 H   0  0  0  0  0  0  0  0  0  0  0  0
  1  2  1  0  0  0  0
  1  3  1  0  0  0  0
  3  4  1  0  0  0  0
  3  5  1  0  0  0  0
  3  6  1  0  0  0  0
  6  7  1  0  0  0  0
  6  8  1  0  0  0  0
  6  9  1  0  0  0  0
  9 10  1  0  0  0  0
  9 11  1  0  0  0  0
  9 12  1  0  0  0  0
 12  1  1  0  0  0  0
 12 13  1  0  0  0  0
 12 14  1  0  0  0  0
  1 15  1  0  0  0  0
 15 16  1  0  0  0  0
 15 17  1  0  0  0  0
 15 18  1  0  0  0  0
 18 19  1  0  0  0  0
 18 20  1  0  0  0  0
 20 21  1  0  0  0  0
 20 22  1  0  0  0  0
 20 23  1  0  0  0  0
 18 24  1  0  0  0  0
 24 25  1  0  0  0  0
 24 26  1  0  0  0  0
 24 27  1  0  0  0  0
M  END
> <ChemID>
104630

> <source_casrn>
3788-32-7

> <CAS>
3788-32-7

> <SMILES>
CC(C)CC1CCCC1

> <NAME>
CYCLOPENTANE, (2-METHYLPROPYL)-

> <preferred_name>
Isobutylcyclopentane

> <iupac>
2-methylpropylcyclopentane

> <MPID>
23527

> <dsstox_substance_id>
DTXSID90191315

> <Canonical_QSARr>
CC(C)CC1CCCC1

> <InChI_Code_QSARr>
InChI=1S/C9H18/c1-8(2)7-9-5-3-4-6-9/h8-9H,3-7H2,1-2H3

> <InChI Key_QSARr>
DPUYDFJBHDYVQM-UHFFFAOYSA-N

> <Salt_Solvent>
?

> <BP>
148.0

$$$$
104634
  -INDIGO-08031720192D

 22 21  0  0  0  0  0  0  0  0999 V2000
    2.4141   -0.4257    0.0000 N   0  0  0  0  0  0  0  0  0  0  0  0
    4.0141   -0.4257    0.0000 H   0  0  0  0  0  0  0  0  0  0  0  0
    2.4006   -1.3442    0.0000 H   0  0  0  0  0  0  0  0  0  0  0  0
    1.3856    0.8000    0.0000 C   0  0  0  0  0  0  0  0  0  0  0  0
    0.3572    2.0256    0.0000 H   0  0  0  0  0  0  0  0  0  0  0  0
   -0.0000   -0.0000    0.0000 C   0  0  0  0  0  0  0  0  0  0  0  0
   -1.3857   -0.8000    0.0000 C   0  0  0  0  0  0  0  0  0  0  0  0
   -2.7713   -1.6000    0.0000 H   0  0  0  0  0  0  0  0  0  0  0  0
   -2.7713   -0.0000    0.0000 H   0  0  0  0  0  0  0  0  0  0  0  0
   -1.3857   -2.4000    0.0000 H   0  0  0  0  0  0  0  0  0  0  0  0
   -0.8000    1.3856    0.0000 C   0  0  0  0  0  0  0  0  0  0  0  0
   -1.6000    2.7713    0.0000 H   0  0  0  0  0  0  0  0  0  0  0  0
   -2.4001    1.3856    0.0000 H   0  0  0  0  0  0  0  0  0  0  0  0
   -0.2527    2.8892    0.0000 H   0  0  0  0  0  0  0  0  0  0  0  0
    0.8000   -1.3856    0.0000 C   0  0  0  0  0  0  0  0  0  0  0  0
    1.6000   -2.7713    0.0000 H   0  0  0  0  0  0  0  0  0  0  0  0
   -0.0000   -2.7713    0.0000 H   0  0  0  0  0  0  0  0  0  0  0  0
    1.6141   -1.8113    0.0000 H   0  0  0  0  0  0  0  0  0  0  0  0
    2.6113    1.8284    0.0000 C   0  0  0  0  0  0  0  0  0  0  0  0
    3.8370    2.8570    0.0000 H   0  0  0  0  0  0  0  0  0  0  0  0
    2.3335    3.4042    0.0000 H   0  0  0  0  0  0  0  0  0  0  0  0
    4.1148    1.2812    0.0000 H   0  0  0  0  0  0  0  0  0  0  0  0
  1  2  1  0  0  0  0
  1  3  1  0  0  0  0
  1  4  1  0  0  0  0
  4  5  1  0  0  0  0
  4  6  1  0  0  0  0
  6  7  1  0  0  0  0
  7  8  1  0  0  0  0
  7  9  1  0  0  0  0
  7 10  1  0  0  0  0
  6 11  1  0  0  0  0
 11 12  1  0  0  0  0
 11 13  1  0  0  0  0
 11 14  1  0  0  0  0
  6 15  1  0  0  0  0
 15 16  1  0  0  0  0
 15 17  1  0  0  0  0
 15 18  1  0  0  0  0
  4 19  1  0  0  0  0
 19 20  1  0  0  0  0
 19 21  1  0  0  0  0
 19 22  1  0  0  0  0
M  END
> <ChemID>
104634

> <source_casrn>
3850-30-4

> <CAS>
66228-31-7

> <SMILES>
C[C@@H](N)C(C)(C)C

> <NAME>
2-Butanamine, 3,3-dimethyl-

> <preferred_name>
(R)-(-)-3,3-Dimethyl-2-butylamine, (S)-(+)-3,3-Dimethyl-2-butylamine

> <iupac>
C6H15N

> <MPID>
23531

> <dsstox_substance_id>
DTXSID10415964

> <Canonical_QSARr>
CC(N)C(C)(C)C

> <InChI_Code_QSARr>
InChI=1S/C6H15N/c1-5(7)6(2,3)4/h5H,7H2,1-4H3

> <InChI Key_QSARr>
DXSUORGKJZADET-UHFFFAOYSA-N

> <Salt_Solvent>
?

> <BP>
102.0

$$$$
104638
  -INDIGO-08031720192D

 15 14  0  0  0  0  0  0  0  0999 V2000
   -1.3857    0.8000    0.0000 C   0  0  0  0  0  0  0  0  0  0  0  0
   -0.7733    2.2782    0.0000 H   0  0  0  0  0  0  0  0  0  0  0  0
   -1.9979    2.2782    0.0000 H   0  0  0  0  0  0  0  0  0  0  0  0
    0.0000    0.0000    0.0000 C   0  0  0  0  0  0  0  0  0  0  0  0
   -0.6122   -1.4782    0.0000 H   0  0  0  0  0  0  0  0  0  0  0  0
    0.6122   -1.4782    0.0000 H   0  0  0  0  0  0  0  0  0  0  0  0
    1.3856    0.8000    0.0000 C   0  0  0  0  0  0  0  0  0  0  0  0
    2.7713    1.6000    0.0000 H   0  0  0  0  0  0  0  0  0  0  0  0
    2.7713    0.0000    0.0000 H   0  0  0  0  0  0  0  0  0  0  0  0
    1.3856    2.4000    0.0000 H   0  0  0  0  0  0  0  0  0  0  0  0
   -2.7713    0.0000    0.0000 S   0  0  0  0  0  0  0  0  0  0  0  0
   -4.1569    0.8000    0.0000 C   0  0  0  0  0  0  0  0  0  0  0  0
   -5.5426    1.6000    0.0000 H   0  0  0  0  0  0  0  0  0  0  0  0
   -5.5426    0.0000    0.0000 H   0  0  0  0  0  0  0  0  0  0  0  0
   -4.1569    2.4000    0.0000 H   0  0  0  0  0  0  0  0  0  0  0  0
  1  2  1  0  0  0  0
  1  3  1  0  0  0  0
  1  4  1  0  0  0  0
  4  5  1  0  0  0  0
  4  6  1  0  0  0  0
  4  7  1  0  0  0  0
  7  8  1  0  0  0  0
  7  9  1  0  0  0  0
  7 10  1  0  0  0  0
  1 11  1  0  0  0  0
 11 12  1  0  0  0  0
 12 13  1  0  0  0  0
 12 14  1  0  0  0  0
 12 15  1  0  0  0  0
M  END
> <ChemID>
104638

> <source_casrn>
3877-15-4

> <CAS>
3877-15-4

> <SMILES>
CCCSC

> <NAME>
N-PROPYLMETHYLSULFIDE

> <preferred_name>
Propane, 1-(methylthio)-

> <iupac>
1-methylsulfanylpropane

> <MPID>
23535

> <dsstox_substance_id>
DTXSID9073969

> <Canonical_QSARr>
CCCSC

> <InChI_Code_QSARr>
InChI=1S/C4H10S/c1-3-4-5-2/h3-4H2,1-2H3

> <InChI Key_QSARr>
ZOASGOXWEHUTKZ-UHFFFAOYSA-N

> <Salt_Solvent>
?

> <BP>
95.6

$$$$
104642
  -INDIGO-08031720192D

 14 13  0  0  0  0  0  0  0  0999 V2000
   -1.3857    0.8000    0.0000 O   0  0  0  0  0  0  0  0  0  0  0  0
    0.0001    0.0000    0.0000 C   0  0  0  0  0  0  0  0  0  0  0  0
    0.6124   -1.4782    0.0000 H   0  0  0  0  0  0  0  0  0  0  0  0
   -0.6122   -1.4782    0.0000 H   0  0  0  0  0  0  0  0  0  0  0  0
    1.3857    0.8000    0.0000 C   0  0  0  0  0  0  0  0  0  0  0  0
    1.3857    2.4000    0.0000 H   0  0  0  0  0  0  0  0  0  0  0  0
    2.7713    0.0000    0.0000 C   0  0  0  0  0  0  0  0  0  0  0  0
    4.1569    0.8000    0.0000 H   0  0  0  0  0  0  0  0  0  0  0  0
    2.7713   -1.6000    0.0000 H   0  0  0  0  0  0  0  0  0  0  0  0
   -2.7713    0.0000    0.0000 C   0  0  0  0  0  0  0  0  0  0  0  0
   -2.7713   -1.6000    0.0000 H   0  0  0  0  0  0  0  0  0  0  0  0
   -4.1569    0.8000    0.0000 C   0  0  0  0  0  0  0  0  0  0  0  0
   -5.5426    0.0000    0.0000 H   0  0  0  0  0  0  0  0  0  0  0  0
   -4.1569    2.4000    0.0000 H   0  0  0  0  0  0  0  0  0  0  0  0
  1  2  1  0  0  0  0
  2  3  1  0  0  0  0
  2  4  1  0  0  0  0
  2  5  1  0  0  0  0
  5  6  1  0  0  0  0
  5  7  2  0  0  0  0
  7  8  1  0  0  0  0
  7  9  1  0  0  0  0
  1 10  1  0  0  0  0
 10 11  1  0  0  0  0
 10 12  2  0  0  0  0
 12 13  1  0  0  0  0
 12 14  1  0  0  0  0
M  END
> <ChemID>
104642

> <source_casrn>
3917-15-5

> <CAS>
3917-15-5

> <SMILES>
C=COCC=C

> <NAME>
1-PROPENE, 3-(ETHENYLOXY)-

> <preferred_name>
Ether, allyl vinyl

> <iupac>
3-ethenoxyprop-1-ene

> <MPID>
23539

> <dsstox_substance_id>
DTXSID70192406

> <Canonical_QSARr>
C=COCC=C

> <InChI_Code_QSARr>
InChI=1S/C5H8O/c1-3-5-6-4-2/h3-4H,1-2,5H2

> <InChI Key_QSARr>
ZXABMDQSAABDMG-UHFFFAOYSA-N

> <Salt_Solvent>
?

> <BP>
66.0

$$$$
104646
  -INDIGO-08031720192D

 29 29  0  0  0  0  0  0  0  0999 V2000
   -1.3856    0.8000    0.0000 O   0  0  0  0  0  0  0  0  0  0  0  0
   -0.0001    0.0001    0.0000 C   0  0  0  0  0  0  0  0  0  0  0  0
   -0.0001   -1.5999    0.0000 C   0  0  0  0  0  0  0  0  0  0  0  0
   -1.3856   -2.4000    0.0000 O   0  0  0  0  0  0  0  0  0  0  0  0
   -1.3856   -4.0000    0.0000 C   0  0  0  0  0  0  0  0  0  0  0  0
   -1.3856   -5.6000    0.0000 H   0  0  0  0  0  0  0  0  0  0  0  0
   -2.7712   -4.7999    0.0000 H   0  0  0  0  0  0  0  0  0  0  0  0
   -0.0001   -4.7999    0.0000 H   0  0  0  0  0  0  0  0  0  0  0  0
    1.3856   -2.4000    0.0000 C   0  0  0  0  0  0  0  0  0  0  0  0
    1.3856   -4.0000    0.0000 H   0  0  0  0  0  0  0  0  0  0  0  0
    2.7714   -1.5999    0.0000 C   0  0  0  0  0  0  0  0  0  0  0  0
    4.1569   -2.4000    0.0000 H   0  0  0  0  0  0  0  0  0  0  0  0
    2.7712    0.0001    0.0000 C   0  0  0  0  0  0  0  0  0  0  0  0
    4.1569    0.8000    0.0000 C   0  0  0  0  0  0  0  0  0  0  0  0
    5.5425    0.0001    0.0000 O   0  0  0  0  0  0  0  0  0  0  0  0
    6.9282    0.8000    0.0000 C   0  0  0  0  0  0  0  0  0  0  0  0
    6.3159    2.2782    0.0000 H   0  0  0  0  0  0  0  0  0  0  0  0
    7.5405    2.2782    0.0000 H   0  0  0  0  0  0  0  0  0  0  0  0
    8.3139    0.0001    0.0000 C   0  0  0  0  0  0  0  0  0  0  0  0
    9.6995   -0.8000    0.0000 H   0  0  0  0  0  0  0  0  0  0  0  0
    9.6995    0.8000    0.0000 H   0  0  0  0  0  0  0  0  0  0  0  0
    8.3139   -1.5999    0.0000 H   0  0  0  0  0  0  0  0  0  0  0  0
    4.1569    2.4000    0.0000 O   0  0  0  0  0  0  0  0  0  0  0  0
    1.3856    0.8000    0.0000 C   0  0  0  0  0  0  0  0  0  0  0  0
    1.3856    2.4000    0.0000 H   0  0  0  0  0  0  0  0  0  0  0  0
   -2.7714    0.0001    0.0000 C   0  0  0  0  0  0  0  0  0  0  0  0
   -4.1569    0.8000    0.0000 H   0  0  0  0  0  0  0  0  0  0  0  0
   -4.1569   -0.8000    0.0000 H   0  0  0  0  0  0  0  0  0  0  0  0
   -2.7714    1.6001    0.0000 H   0  0  0  0  0  0  0  0  0  0  0  0
  1  2  1  0  0  0  0
  2  3  1  0  0  0  0
  3  4  1  0  0  0  0
  4  5  1  0  0  0  0
  5  6  1  0  0  0  0
  5  7  1  0  0  0  0
  5  8  1  0  0  0  0
  3  9  2  0  0  0  0
  9 10  1  0  0  0  0
  9 11  1  0  0  0  0
 11 12  1  0  0  0  0
 11 13  2  0  0  0  0
 13 14  1  0  0  0  0
 14 15  1  0  0  0  0
 15 16  1  0  0  0  0
 16 17  1  0  0  0  0
 16 18  1  0  0  0  0
 16 19  1  0  0  0  0
 19 20  1  0  0  0  0
 19 21  1  0  0  0  0
 19 22  1  0  0  0  0
 14 23  2  0  0  0  0
 13 24  1  0  0  0  0
 24  2  2  0  0  0  0
 24 25  1  0  0  0  0
  1 26  1  0  0  0  0
 26 27  1  0  0  0  0
 26 28  1  0  0  0  0
 26 29  1  0  0  0  0
M  END
> <ChemID>
104646

> <source_casrn>
3943-77-9

> <CAS>
3943-77-9

> <SMILES>
CCOC(=O)c1cc(OC)c(cc1)OC

> <NAME>
3,4-Dimethoxy-benzoic acid ethyl ester

> <preferred_name>
Benzoic acid, 3,4-dimethoxy-, ethyl ester

> <iupac>
Ethyl 3,4-dimethoxybenzoate

> <MPID>
23543

> <dsstox_substance_id>
DTXSID80192598

> <Canonical_QSARr>
CCOC(=O)c1cc(OC)c(cc1)OC

> <InChI_Code_QSARr>
InChI=1S/C11H14O4/c1-4-15-11(12)8-5-6-9(13-2)10(7-8)14-3/h5-7H,4H2,1-3H3

> <InChI Key_QSARr>
AYYNUGSDPRDVCH-UHFFFAOYSA-N

> <Salt_Solvent>
?

> <BP>
295.5

$$$$
104650
  -INDIGO-08031720192D

 17 17  0  0  0  0  0  0  0  0999 V2000
   -4.8000   -0.0000    0.0000 Br  0  0  0  0  0  0  0  0  0  0  0  0
   -3.2001   -0.0000    0.0000 C   0  0  0  0  0  0  0  0  0  0  0  0
   -2.4000    1.3856    0.0000 C   0  0  0  0  0  0  0  0  0  0  0  0
   -3.2001    2.7713    0.0000 H   0  0  0  0  0  0  0  0  0  0  0  0
   -0.8000    1.3856    0.0000 C   0  0  0  0  0  0  0  0  0  0  0  0
   -0.0000    2.7713    0.0000 H   0  0  0  0  0  0  0  0  0  0  0  0
   -0.0000   -0.0000    0.0000 C   0  0  0  0  0  0  0  0  0  0  0  0
    1.6000   -0.0000    0.0000 C   0  0  0  0  0  0  0  0  0  0  0  0
    1.8088   -1.5863    0.0000 H   0  0  0  0  0  0  0  0  0  0  0  0
    2.8694   -0.9740    0.0000 H   0  0  0  0  0  0  0  0  0  0  0  0
    2.4001    1.3856    0.0000 N   0  0  0  0  0  0  0  0  0  0  0  0
    4.0000    1.3856    0.0000 H   0  0  0  0  0  0  0  0  0  0  0  0
    1.6000    2.7713    0.0000 H   0  0  0  0  0  0  0  0  0  0  0  0
   -0.8000   -1.3856    0.0000 C   0  0  0  0  0  0  0  0  0  0  0  0
   -0.0000   -2.7713    0.0000 H   0  0  0  0  0  0  0  0  0  0  0  0
   -2.4000   -1.3856    0.0000 C   0  0  0  0  0  0  0  0  0  0  0  0
   -3.2001   -2.7713    0.0000 H   0  0  0  0  0  0  0  0  0  0  0  0
  1  2  1  0  0  0  0
  2  3  1  0  0  0  0
  3  4  1  0  0  0  0
  3  5  2  0  0  0  0
  5  6  1  0  0  0  0
  5  7  1  0  0  0  0
  7  8  1  0  0  0  0
  8  9  1  0  0  0  0
  8 10  1  0  0  0  0
  8 11  1  0  0  0  0
 11 12  1  0  0  0  0
 11 13  1  0  0  0  0
  7 14  2  0  0  0  0
 14 15  1  0  0  0  0
 14 16  1  0  0  0  0
 16  2  2  0  0  0  0
 16 17  1  0  0  0  0
M  END
> <ChemID>
104650

> <source_casrn>
3959-07-7

> <CAS>
3959-07-7

> <SMILES>
NCc1ccc(Br)cc1

> <NAME>
4-Bromo-benzylamine

> <preferred_name>
4-Bromobenzylamine

> <iupac>
(4-bromophenyl)methanamine

> <MPID>
23547

> <dsstox_substance_id>
DTXSID70192704

> <Canonical_QSARr>
NCc1ccc(Br)cc1

> <InChI_Code_QSARr>
InChI=1S/C7H8BrN/c8-7-3-1-6(5-9)2-4-7/h1-4H,5,9H2

> <InChI Key_QSARr>
XRNVSPDQTPVECU-UHFFFAOYSA-N

> <Salt_Solvent>
?

> <BP>
250.0

$$$$
104654
  -INDIGO-08031720192D

 24 24  0  0  0  0  0  0  0  0999 V2000
   -1.5999    0.0000    0.0000 C   0  0  0  0  0  0  0  0  0  0  0  0
   -2.4000    1.3857    0.0000 C   0  0  0  0  0  0  0  0  0  0  0  0
   -1.5999    2.7713    0.0000 H   0  0  0  0  0  0  0  0  0  0  0  0
   -4.0000    1.3857    0.0000 C   0  0  0  0  0  0  0  0  0  0  0  0
   -4.7999    2.7713    0.0000 H   0  0  0  0  0  0  0  0  0  0  0  0
   -4.8001    0.0000    0.0000 C   0  0  0  0  0  0  0  0  0  0  0  0
   -6.4000    0.0000    0.0000 Cl  0  0  0  0  0  0  0  0  0  0  0  0
   -4.0000   -1.3857    0.0000 C   0  0  0  0  0  0  0  0  0  0  0  0
   -4.8001   -2.7713    0.0000 H   0  0  0  0  0  0  0  0  0  0  0  0
   -2.4000   -1.3857    0.0000 C   0  0  0  0  0  0  0  0  0  0  0  0
   -1.5999   -2.7713    0.0000 H   0  0  0  0  0  0  0  0  0  0  0  0
    0.0000    0.0000    0.0000 C   0  0  0  0  0  0  0  0  0  0  0  0
    1.6001   -0.0000    0.0000 C   0  0  0  0  0  0  0  0  0  0  0  0
    3.2000   -0.0000    0.0000 H   0  0  0  0  0  0  0  0  0  0  0  0
    2.6284   -1.2256    0.0000 H   0  0  0  0  0  0  0  0  0  0  0  0
    2.6284    1.2256    0.0000 H   0  0  0  0  0  0  0  0  0  0  0  0
    0.0000    1.6000    0.0000 C   0  0  0  0  0  0  0  0  0  0  0  0
   -0.2779    3.1757    0.0000 H   0  0  0  0  0  0  0  0  0  0  0  0
    1.2257    2.6285    0.0000 H   0  0  0  0  0  0  0  0  0  0  0  0
    1.5035    1.0527    0.0000 H   0  0  0  0  0  0  0  0  0  0  0  0
    0.0000   -1.6000    0.0000 C   0  0  0  0  0  0  0  0  0  0  0  0
   -0.2779   -3.1757    0.0000 H   0  0  0  0  0  0  0  0  0  0  0  0
    1.2257   -2.6285    0.0000 H   0  0  0  0  0  0  0  0  0  0  0  0
    1.5035   -1.0527    0.0000 H   0  0  0  0  0  0  0  0  0  0  0  0
  1  2  1  0  0  0  0
  2  3  1  0  0  0  0
  2  4  2  0  0  0  0
  4  5  1  0  0  0  0
  4  6  1  0  0  0  0
  6  7  1  0  0  0  0
  6  8  2  0  0  0  0
  8  9  1  0  0  0  0
  8 10  1  0  0  0  0
 10  1  2  0  0  0  0
 10 11  1  0  0  0  0
  1 12  1  0  0  0  0
 12 13  1  0  0  0  0
 13 14  1  0  0  0  0
 13 15  1  0  0  0  0
 13 16  1  0  0  0  0
 12 17  1  0  0  0  0
 17 18  1  0  0  0  0
 17 19  1  0  0  0  0
 17 20  1  0  0  0  0
 12 21  1  0  0  0  0
 21 22  1  0  0  0  0
 21 23  1  0  0  0  0
 21 24  1  0  0  0  0
M  END
> <ChemID>
104654

> <source_casrn>
3972-56-3

> <CAS>
3972-56-3

> <SMILES>
CC(C)(C)c1ccc(Cl)cc1

> <NAME>
Benzene, 1-chloro-4-(1,1-dimethylethyl)-

> <preferred_name>
4-tert-Butylchlorobenzene

> <iupac>
1-tert-Butyl-4-chlorobenzene

> <MPID>
23551

> <dsstox_substance_id>
DTXSID3063251

> <Canonical_QSARr>
CC(C)(C)c1ccc(Cl)cc1

> <InChI_Code_QSARr>
InChI=1S/C10H13Cl/c1-10(2,3)8-4-6-9(11)7-5-8/h4-7H,1-3H3

> <InChI Key_QSARr>
XRTANKYQJQXSFP-UHFFFAOYSA-N

> <Salt_Solvent>
?

> <BP>
213.0

$$$$
104658
  -INDIGO-08031720192D

 34 35  0  0  0  0  0  0  0  0999 V2000
   -0.0001    0.0001    0.0000 C   0  0  0  0  0  0  0  0  0  0  0  0
    1.5035    0.5473    0.0000 C   0  0  0  0  0  0  0  0  0  0  0  0
    2.7291   -0.4812    0.0000 C   0  0  0  0  0  0  0  0  0  0  0  0
    2.4513   -2.0569    0.0000 C   0  0  0  0  0  0  0  0  0  0  0  0
    3.6769   -3.0854    0.0000 H   0  0  0  0  0  0  0  0  0  0  0  0
    2.1735   -3.6326    0.0000 H   0  0  0  0  0  0  0  0  0  0  0  0
    3.9549   -1.5097    0.0000 H   0  0  0  0  0  0  0  0  0  0  0  0
    4.2327    0.0660    0.0000 C   0  0  0  0  0  0  0  0  0  0  0  0
    5.4583   -0.9625    0.0000 H   0  0  0  0  0  0  0  0  0  0  0  0
    4.5105    1.6417    0.0000 C   0  0  0  0  0  0  0  0  0  0  0  0
    6.0139    2.1889    0.0000 C   0  0  0  0  0  0  0  0  0  0  0  0
    7.5175    2.7362    0.0000 H   0  0  0  0  0  0  0  0  0  0  0  0
    6.2919    3.7646    0.0000 H   0  0  0  0  0  0  0  0  0  0  0  0
    7.2397    1.1605    0.0000 H   0  0  0  0  0  0  0  0  0  0  0  0
    3.2849    2.6702    0.0000 C   0  0  0  0  0  0  0  0  0  0  0  0
    3.5627    4.2458    0.0000 H   0  0  0  0  0  0  0  0  0  0  0  0
    1.7813    2.1230    0.0000 C   0  0  0  0  0  0  0  0  0  0  0  0
    0.5557    3.1514    0.0000 H   0  0  0  0  0  0  0  0  0  0  0  0
   -1.3857    0.8000    0.0000 C   0  0  0  0  0  0  0  0  0  0  0  0
   -1.6635    2.3757    0.0000 C   0  0  0  0  0  0  0  0  0  0  0  0
   -1.9413    3.9514    0.0000 H   0  0  0  0  0  0  0  0  0  0  0  0
   -0.4379    3.4042    0.0000 H   0  0  0  0  0  0  0  0  0  0  0  0
   -3.1669    2.9229    0.0000 H   0  0  0  0  0  0  0  0  0  0  0  0
   -2.7713    0.0001    0.0000 C   0  0  0  0  0  0  0  0  0  0  0  0
   -4.1569    0.8000    0.0000 H   0  0  0  0  0  0  0  0  0  0  0  0
   -2.7713   -1.6000    0.0000 C   0  0  0  0  0  0  0  0  0  0  0  0
   -4.1569   -2.4000    0.0000 C   0  0  0  0  0  0  0  0  0  0  0  0
   -5.5426   -3.2000    0.0000 H   0  0  0  0  0  0  0  0  0  0  0  0
   -4.1569   -4.0000    0.0000 H   0  0  0  0  0  0  0  0  0  0  0  0
   -5.5426   -1.6000    0.0000 H   0  0  0  0  0  0  0  0  0  0  0  0
   -1.3857   -2.4000    0.0000 C   0  0  0  0  0  0  0  0  0  0  0  0
   -1.3857   -4.0000    0.0000 H   0  0  0  0  0  0  0  0  0  0  0  0
   -0.0001   -1.6000    0.0000 C   0  0  0  0  0  0  0  0  0  0  0  0
    1.3856   -2.4000    0.0000 H   0  0  0  0  0  0  0  0  0  0  0  0
  1  2  1  0  0  0  0
  2  3  1  0  0  0  0
  3  4  1  0  0  0  0
  4  5  1  0  0  0  0
  4  6  1  0  0  0  0
  4  7  1  0  0  0  0
  3  8  2  0  0  0  0
  8  9  1  0  0  0  0
  8 10  1  0  0  0  0
 10 11  1  0  0  0  0
 11 12  1  0  0  0  0
 11 13  1  0  0  0  0
 11 14  1  0  0  0  0
 10 15  2  0  0  0  0
 15 16  1  0  0  0  0
 15 17  1  0  0  0  0
 17  2  2  0  0  0  0
 17 18  1  0  0  0  0
  1 19  1  0  0  0  0
 19 20  1  0  0  0  0
 20 21  1  0  0  0  0
 20 22  1  0  0  0  0
 20 23  1  0  0  0  0
 19 24  2  0  0  0  0
 24 25  1  0  0  0  0
 24 26  1  0  0  0  0
 26 27  1  0  0  0  0
 27 28  1  0  0  0  0
 27 29  1  0  0  0  0
 27 30  1  0  0  0  0
 26 31  2  0  0  0  0
 31 32  1  0  0  0  0
 31 33  1  0  0  0  0
 33  1  2  0  0  0  0
 33 34  1  0  0  0  0
M  END
> <ChemID>
104658

> <source_casrn>
3976-36-1

> <CAS>
3976-36-1

> <SMILES>
Cc1cc(C)c(cc1)-c1ccc(C)cc1C

> <NAME>
2,4,2',4'-Tetramethyl-biphenyl

> <preferred_name>
1,1'-Biphenyl, 2,2',4,4'-tetramethyl-

> <iupac>
C16H18

> <MPID>
23555

> <dsstox_substance_id>
DTXSID10334505

> <Canonical_QSARr>
Cc1cc(C)c(cc1)-c1ccc(C)cc1C

> <InChI_Code_QSARr>
InChI=1S/C16H18/c1-11-5-7-15(13(3)9-11)16-8-6-12(2)10-14(16)4/h5-10H,1-4H3

> <InChI Key_QSARr>
PZCRCGZQRHMEDY-UHFFFAOYSA-N

> <Salt_Solvent>
?

> <BP>
287.0

$$$$
104662
  -INDIGO-08031720192D

 17 17  0  0  0  0  0  0  0  0999 V2000
   -0.8000    1.3856    0.0000 O   0  0  0  0  0  0  0  0  0  0  0  0
    0.0000    0.0000    0.0000 C   0  0  0  0  0  0  0  0  0  0  0  0
    0.2779   -1.5757    0.0000 H   0  0  0  0  0  0  0  0  0  0  0  0
    1.5035    0.5472    0.0000 C   0  0  0  0  0  0  0  0  0  0  0  0
    2.3631    1.8966    0.0000 H   0  0  0  0  0  0  0  0  0  0  0  0
    1.1572    2.1093    0.0000 H   0  0  0  0  0  0  0  0  0  0  0  0
    2.7291   -0.4812    0.0000 O   0  0  0  0  0  0  0  0  0  0  0  0
    4.2326    0.0660    0.0000 C   0  0  0  0  0  0  0  0  0  0  0  0
    5.0924    1.4154    0.0000 H   0  0  0  0  0  0  0  0  0  0  0  0
    3.8864    1.6281    0.0000 H   0  0  0  0  0  0  0  0  0  0  0  0
    5.4584   -0.9625    0.0000 C   0  0  0  0  0  0  0  0  0  0  0  0
    6.6840   -1.9909    0.0000 H   0  0  0  0  0  0  0  0  0  0  0  0
    6.9619   -0.4152    0.0000 H   0  0  0  0  0  0  0  0  0  0  0  0
    5.1806   -2.5381    0.0000 H   0  0  0  0  0  0  0  0  0  0  0  0
   -1.6000    0.0000    0.0000 C   0  0  0  0  0  0  0  0  0  0  0  0
   -1.8779   -1.5757    0.0000 H   0  0  0  0  0  0  0  0  0  0  0  0
   -3.1035    0.5472    0.0000 H   0  0  0  0  0  0  0  0  0  0  0  0
  1  2  1  0  0  0  0
  2  3  1  0  0  0  0
  2  4  1  0  0  0  0
  4  5  1  0  0  0  0
  4  6  1  0  0  0  0
  4  7  1  0  0  0  0
  7  8  1  0  0  0  0
  8  9  1  0  0  0  0
  8 10  1  0  0  0  0
  8 11  1  0  0  0  0
 11 12  1  0  0  0  0
 11 13  1  0  0  0  0
 11 14  1  0  0  0  0
  2 15  1  0  0  0  0
 15  1  1  0  0  0  0
 15 16  1  0  0  0  0
 15 17  1  0  0  0  0
M  END
> <ChemID>
104662

> <source_casrn>
4016-11-9

> <CAS>
NOCAS_871049

> <SMILES>
CCOCC1CO1

> <NAME>
Oxirane, (ethoxymethyl)-

> <preferred_name>


> <iupac>


> <MPID>
23559

> <dsstox_substance_id>
DTXSID90871049

> <Canonical_QSARr>
CCOCC1CO1

> <InChI_Code_QSARr>
InChI=1S/C5H10O2/c1-2-6-3-5-4-7-5/h5H,2-4H2,1H3

> <InChI Key_QSARr>
HQCSZRIVJVOYSU-UHFFFAOYSA-N

> <Salt_Solvent>
?

> <BP>
128.0

$$$$
104666
  -INDIGO-08031720192D

 32 31  0  0  0  0  0  0  0  0999 V2000
   -0.8384   -2.3035    0.0000 C   0  0  0  0  0  0  0  0  0  0  0  0
   -0.2911   -3.8070    0.0000 H   0  0  0  0  0  0  0  0  0  0  0  0
   -1.8669   -3.5292    0.0000 H   0  0  0  0  0  0  0  0  0  0  0  0
    0.7372   -2.5813    0.0000 H   0  0  0  0  0  0  0  0  0  0  0  0
   -1.3857   -0.8000    0.0000 C   0  0  0  0  0  0  0  0  0  0  0  0
   -1.9328    0.7036    0.0000 H   0  0  0  0  0  0  0  0  0  0  0  0
   -0.0001   -0.0000    0.0000 C   0  0  0  0  0  0  0  0  0  0  0  0
    0.8000   -1.3857    0.0000 H   0  0  0  0  0  0  0  0  0  0  0  0
    1.3857    0.8001    0.0000 C   0  0  0  0  0  0  0  0  0  0  0  0
    1.9979    2.2782    0.0000 H   0  0  0  0  0  0  0  0  0  0  0  0
    0.7734    2.2782    0.0000 H   0  0  0  0  0  0  0  0  0  0  0  0
    2.7713   -0.0000    0.0000 C   0  0  0  0  0  0  0  0  0  0  0  0
    2.1590   -1.4782    0.0000 H   0  0  0  0  0  0  0  0  0  0  0  0
    3.3836   -1.4782    0.0000 H   0  0  0  0  0  0  0  0  0  0  0  0
    4.1569    0.7999    0.0000 C   0  0  0  0  0  0  0  0  0  0  0  0
    3.1284    2.0256    0.0000 H   0  0  0  0  0  0  0  0  0  0  0  0
    5.3826    1.8284    0.0000 C   0  0  0  0  0  0  0  0  0  0  0  0
    6.6083    2.8569    0.0000 H   0  0  0  0  0  0  0  0  0  0  0  0
    6.8861    1.2812    0.0000 H   0  0  0  0  0  0  0  0  0  0  0  0
    5.1048    3.4042    0.0000 H   0  0  0  0  0  0  0  0  0  0  0  0
    5.1854   -0.4256    0.0000 C   0  0  0  0  0  0  0  0  0  0  0  0
    6.2139   -1.6513    0.0000 H   0  0  0  0  0  0  0  0  0  0  0  0
    4.6381   -1.9292    0.0000 H   0  0  0  0  0  0  0  0  0  0  0  0
    6.7612   -0.1478    0.0000 H   0  0  0  0  0  0  0  0  0  0  0  0
   -0.8000    1.3857    0.0000 C   0  0  0  0  0  0  0  0  0  0  0  0
   -1.5999    2.7712    0.0000 H   0  0  0  0  0  0  0  0  0  0  0  0
   -0.2527    2.8892    0.0000 H   0  0  0  0  0  0  0  0  0  0  0  0
   -2.3756    1.6635    0.0000 H   0  0  0  0  0  0  0  0  0  0  0  0
   -2.8892   -1.3473    0.0000 C   0  0  0  0  0  0  0  0  0  0  0  0
   -4.3927   -1.8945    0.0000 H   0  0  0  0  0  0  0  0  0  0  0  0
   -3.1669   -2.9229    0.0000 H   0  0  0  0  0  0  0  0  0  0  0  0
   -4.1149   -0.3188    0.0000 H   0  0  0  0  0  0  0  0  0  0  0  0
  1  2  1  0  0  0  0
  1  3  1  0  0  0  0
  1  4  1  0  0  0  0
  1  5  1  0  0  0  0
  5  6  1  0  0  0  0
  5  7  1  0  0  0  0
  7  8  1  0  0  0  0
  7  9  1  0  0  0  0
  9 10  1  0  0  0  0
  9 11  1  0  0  0  0
  9 12  1  0  0  0  0
 12 13  1  0  0  0  0
 12 14  1  0  0  0  0
 12 15  1  0  0  0  0
 15 16  1  0  0  0  0
 15 17  1  0  0  0  0
 17 18  1  0  0  0  0
 17 19  1  0  0  0  0
 17 20  1  0  0  0  0
 15 21  1  0  0  0  0
 21 22  1  0  0  0  0
 21 23  1  0  0  0  0
 21 24  1  0  0  0  0
  7 25  1  0  0  0  0
 25 26  1  0  0  0  0
 25 27  1  0  0  0  0
 25 28  1  0  0  0  0
  5 29  1  0  0  0  0
 29 30  1  0  0  0  0
 29 31  1  0  0  0  0
 29 32  1  0  0  0  0
M  END
> <ChemID>
104666

> <source_casrn>
4032-93-3

> <CAS>
NOCAS_871050

> <SMILES>
CC(C)CCC(C)C(C)C

> <NAME>
HEPTANE, 2,3,6-TRIMETHYL-

> <preferred_name>


> <iupac>


> <MPID>
23563

> <dsstox_substance_id>
DTXSID00871050

> <Canonical_QSARr>
CC(C)CCC(C)C(C)C

> <InChI_Code_QSARr>
InChI=1S/C10H22/c1-8(2)6-7-10(5)9(3)4/h8-10H,6-7H2,1-5H3

> <InChI Key_QSARr>
IHPXJGBVRWFEJB-UHFFFAOYSA-N

> <Salt_Solvent>
?

> <BP>
156.0

$$$$
104670
  -INDIGO-08031720192D

 19 18  0  0  0  0  0  0  0  0999 V2000
   -0.0001    0.0000    0.0000 C   0  0  0  0  0  0  0  0  0  0  0  0
    0.6122   -1.4782    0.0000 H   0  0  0  0  0  0  0  0  0  0  0  0
   -0.6124   -1.4782    0.0000 H   0  0  0  0  0  0  0  0  0  0  0  0
    1.3857    0.8000    0.0000 C   0  0  0  0  0  0  0  0  0  0  0  0
    0.7734    2.2782    0.0000 H   0  0  0  0  0  0  0  0  0  0  0  0
    1.9980    2.2782    0.0000 H   0  0  0  0  0  0  0  0  0  0  0  0
    2.7713    0.0000    0.0000 C   0  0  0  0  0  0  0  0  0  0  0  0
    2.7713   -1.6000    0.0000 H   0  0  0  0  0  0  0  0  0  0  0  0
    4.1569    0.8000    0.0000 C   0  0  0  0  0  0  0  0  0  0  0  0
    5.5426    0.0000    0.0000 H   0  0  0  0  0  0  0  0  0  0  0  0
    4.1569    2.4000    0.0000 H   0  0  0  0  0  0  0  0  0  0  0  0
   -1.3857    0.8000    0.0000 C   0  0  0  0  0  0  0  0  0  0  0  0
   -2.7713    0.0000    0.0000 C   0  0  0  0  0  0  0  0  0  0  0  0
   -4.1569   -0.8000    0.0000 H   0  0  0  0  0  0  0  0  0  0  0  0
   -4.1569    0.8000    0.0000 H   0  0  0  0  0  0  0  0  0  0  0  0
   -2.7713   -1.6000    0.0000 H   0  0  0  0  0  0  0  0  0  0  0  0
   -1.3857    2.4000    0.0000 C   0  0  0  0  0  0  0  0  0  0  0  0
   -2.7713    3.2000    0.0000 H   0  0  0  0  0  0  0  0  0  0  0  0
   -0.0001    3.2000    0.0000 H   0  0  0  0  0  0  0  0  0  0  0  0
  1  2  1  0  0  0  0
  1  3  1  0  0  0  0
  1  4  1  0  0  0  0
  4  5  1  0  0  0  0
  4  6  1  0  0  0  0
  4  7  1  0  0  0  0
  7  8  1  0  0  0  0
  7  9  2  0  0  0  0
  9 10  1  0  0  0  0
  9 11  1  0  0  0  0
  1 12  1  0  0  0  0
 12 13  1  0  0  0  0
 13 14  1  0  0  0  0
 13 15  1  0  0  0  0
 13 16  1  0  0  0  0
 12 17  2  0  0  0  0
 17 18  1  0  0  0  0
 17 19  1  0  0  0  0
M  END
> <ChemID>
104670

> <source_casrn>
4049-81-4

> <CAS>
4049-81-4

> <SMILES>
CC(=C)CCC=C

> <NAME>
2-METHYL-1,5-HEXADIENE

> <preferred_name>
2-Methylhexa-1,5-diene

> <iupac>
2-Methylhexa-1,5-diene

> <MPID>
23567

> <dsstox_substance_id>
DTXSID00193502

> <Canonical_QSARr>
CC(=C)CCC=C

> <InChI_Code_QSARr>
InChI=1S/C7H12/c1-4-5-6-7(2)3/h4H,1-2,5-6H2,3H3

> <InChI Key_QSARr>
SLQMKNPIYMOEGB-UHFFFAOYSA-N

> <Salt_Solvent>
?

> <BP>
88.1

$$$$
104675
  -INDIGO-08031720192D

 25 25  0  0  0  0  0  0  0  0999 V2000
    6.9281    0.8000    0.0000 O   0  0  0  0  0  0  0  0  0  0  0  0
    8.3138   -0.0000    0.0000 H   0  0  0  0  0  0  0  0  0  0  0  0
    5.5426   -0.0000    0.0000 C   0  0  0  0  0  0  0  0  0  0  0  0
    4.1569    0.8000    0.0000 C   0  0  0  0  0  0  0  0  0  0  0  0
    4.1569    2.4000    0.0000 H   0  0  0  0  0  0  0  0  0  0  0  0
    2.7712   -0.0000    0.0000 C   0  0  0  0  0  0  0  0  0  0  0  0
    1.3857    0.8000    0.0000 C   0  0  0  0  0  0  0  0  0  0  0  0
    0.7733    2.2782    0.0000 H   0  0  0  0  0  0  0  0  0  0  0  0
    1.9979    2.2782    0.0000 H   0  0  0  0  0  0  0  0  0  0  0  0
    0.0000   -0.0000    0.0000 C   0  0  0  0  0  0  0  0  0  0  0  0
    0.6124   -1.4782    0.0000 H   0  0  0  0  0  0  0  0  0  0  0  0
   -0.6124   -1.4782    0.0000 H   0  0  0  0  0  0  0  0  0  0  0  0
   -1.3857    0.8000    0.0000 C   0  0  0  0  0  0  0  0  0  0  0  0
   -1.9979    2.2782    0.0000 H   0  0  0  0  0  0  0  0  0  0  0  0
   -0.7733    2.2782    0.0000 H   0  0  0  0  0  0  0  0  0  0  0  0
   -2.7712   -0.0000    0.0000 C   0  0  0  0  0  0  0  0  0  0  0  0
   -4.1569   -0.8000    0.0000 H   0  0  0  0  0  0  0  0  0  0  0  0
   -4.1569    0.8000    0.0000 H   0  0  0  0  0  0  0  0  0  0  0  0
   -2.7712   -1.6000    0.0000 H   0  0  0  0  0  0  0  0  0  0  0  0
    2.7712   -1.6000    0.0000 C   0  0  0  0  0  0  0  0  0  0  0  0
    1.3857   -2.4000    0.0000 H   0  0  0  0  0  0  0  0  0  0  0  0
    4.1569   -2.4000    0.0000 C   0  0  0  0  0  0  0  0  0  0  0  0
    4.1569   -4.0000    0.0000 H   0  0  0  0  0  0  0  0  0  0  0  0
    5.5426   -1.6000    0.0000 C   0  0  0  0  0  0  0  0  0  0  0  0
    6.9281   -2.4000    0.0000 H   0  0  0  0  0  0  0  0  0  0  0  0
  1  2  1  0  0  0  0
  1  3  1  0  0  0  0
  3  4  1  0  0  0  0
  4  5  1  0  0  0  0
  4  6  2  0  0  0  0
  6  7  1  0  0  0  0
  7  8  1  0  0  0  0
  7  9  1  0  0  0  0
  7 10  1  0  0  0  0
 10 11  1  0  0  0  0
 10 12  1  0  0  0  0
 10 13  1  0  0  0  0
 13 14  1  0  0  0  0
 13 15  1  0  0  0  0
 13 16  1  0  0  0  0
 16 17  1  0  0  0  0
 16 18  1  0  0  0  0
 16 19  1  0  0  0  0
  6 20  1  0  0  0  0
 20 21  1  0  0  0  0
 20 22  2  0  0  0  0
 22 23  1  0  0  0  0
 22 24  1  0  0  0  0
 24  3  2  0  0  0  0
 24 25  1  0  0  0  0
M  END
> <ChemID>
104675

> <source_casrn>
4074-43-5

> <CAS>
4074-43-5

> <SMILES>
CCCCc1cccc(O)c1

> <NAME>
3-Butylphenol

> <preferred_name>
m-Butylphenol

> <iupac>
3-Butylphenol

> <MPID>
23571

> <dsstox_substance_id>
DTXSID60193725

> <Canonical_QSARr>
CCCCc1cccc(O)c1

> <InChI_Code_QSARr>
InChI=1S/C10H14O/c1-2-3-5-9-6-4-7-10(11)8-9/h4,6-8,11H,2-3,5H2,1H3

> <InChI Key_QSARr>
MQSXUKPGWMJYBT-UHFFFAOYSA-N

> <Salt_Solvent>
?

> <BP>
248.0

$$$$
104680
  -INDIGO-08031720192D

 27 28  0  0  0  0  0  0  0  0999 V2000
   -1.5999   -0.0000    0.0000 C   0  0  0  0  0  0  0  0  0  0  0  0
   -0.0001   -0.0000    0.0000 N   0  0  0  0  0  0  0  0  0  0  0  0
    0.7999    1.3857    0.0000 C   0  0  0  0  0  0  0  0  0  0  0  0
   -0.7035    1.9329    0.0000 H   0  0  0  0  0  0  0  0  0  0  0  0
    1.0778    2.9613    0.0000 H   0  0  0  0  0  0  0  0  0  0  0  0
    2.4000    1.3857    0.0000 C   0  0  0  0  0  0  0  0  0  0  0  0
    2.1221    2.9613    0.0000 H   0  0  0  0  0  0  0  0  0  0  0  0
    3.9035    1.9329    0.0000 H   0  0  0  0  0  0  0  0  0  0  0  0
    3.2000   -0.0000    0.0000 C   0  0  0  0  0  0  0  0  0  0  0  0
    4.4257    1.0285    0.0000 H   0  0  0  0  0  0  0  0  0  0  0  0
    4.4257   -1.0285    0.0000 H   0  0  0  0  0  0  0  0  0  0  0  0
    2.4000   -1.3857    0.0000 C   0  0  0  0  0  0  0  0  0  0  0  0
    3.9035   -1.9329    0.0000 H   0  0  0  0  0  0  0  0  0  0  0  0
    2.1221   -2.9613    0.0000 H   0  0  0  0  0  0  0  0  0  0  0  0
    0.7999   -1.3857    0.0000 C   0  0  0  0  0  0  0  0  0  0  0  0
    1.0778   -2.9613    0.0000 H   0  0  0  0  0  0  0  0  0  0  0  0
   -0.7035   -1.9329    0.0000 H   0  0  0  0  0  0  0  0  0  0  0  0
   -2.3999   -1.3857    0.0000 C   0  0  0  0  0  0  0  0  0  0  0  0
   -1.5999   -2.7713    0.0000 H   0  0  0  0  0  0  0  0  0  0  0  0
   -4.0000   -1.3857    0.0000 C   0  0  0  0  0  0  0  0  0  0  0  0
   -4.8000   -2.7713    0.0000 H   0  0  0  0  0  0  0  0  0  0  0  0
   -4.8000   -0.0000    0.0000 C   0  0  0  0  0  0  0  0  0  0  0  0
   -6.4000   -0.0000    0.0000 H   0  0  0  0  0  0  0  0  0  0  0  0
   -4.0000    1.3857    0.0000 C   0  0  0  0  0  0  0  0  0  0  0  0
   -4.8000    2.7713    0.0000 H   0  0  0  0  0  0  0  0  0  0  0  0
   -2.3999    1.3857    0.0000 C   0  0  0  0  0  0  0  0  0  0  0  0
   -1.5999    2.7713    0.0000 H   0  0  0  0  0  0  0  0  0  0  0  0
  1  2  1  0  0  0  0
  2  3  1  0  0  0  0
  3  4  1  0  0  0  0
  3  5  1  0  0  0  0
  3  6  1  0  0  0  0
  6  7  1  0  0  0  0
  6  8  1  0  0  0  0
  6  9  1  0  0  0  0
  9 10  1  0  0  0  0
  9 11  1  0  0  0  0
  9 12  1  0  0  0  0
 12 13  1  0  0  0  0
 12 14  1  0  0  0  0
 12 15  1  0  0  0  0
 15  2  1  0  0  0  0
 15 16  1  0  0  0  0
 15 17  1  0  0  0  0
  1 18  1  0  0  0  0
 18 19  1  0  0  0  0
 18 20  2  0  0  0  0
 20 21  1  0  0  0  0
 20 22  1  0  0  0  0
 22 23  1  0  0  0  0
 22 24  2  0  0  0  0
 24 25  1  0  0  0  0
 24 26  1  0  0  0  0
 26  1  2  0  0  0  0
 26 27  1  0  0  0  0
M  END
> <ChemID>
104680

> <source_casrn>
4096-20-2

> <CAS>
4096-20-2

> <SMILES>
C1CCCCN1c1ccccc1

> <NAME>
N-PHENYLPIPERIDINE

> <preferred_name>
Piperidine, 1-phenyl-

> <iupac>
1-Phenylpiperidine

> <MPID>
23575

> <dsstox_substance_id>
DTXSID4063294

> <Canonical_QSARr>
C1CCCCN1c1ccccc1

> <InChI_Code_QSARr>
InChI=1S/C11H15N/c1-3-7-11(8-4-1)12-9-5-2-6-10-12/h1,3-4,7-8H,2,5-6,9-10H2

> <InChI Key_QSARr>
LLSKXGRDUPMXLC-UHFFFAOYSA-N

> <Salt_Solvent>
?

> <BP>
258.0

$$$$
104685
  -INDIGO-08031720192D

 18 17  0  0  0  0  0  0  0  0999 V2000
    2.7713    0.0000    0.0000 S   0  0  0  0  0  0  0  0  0  0  0  0
    4.1570    0.8000    0.0000 C   0  0  0  0  0  0  0  0  0  0  0  0
    3.5447    2.2782    0.0000 H   0  0  0  0  0  0  0  0  0  0  0  0
    4.7693    2.2782    0.0000 H   0  0  0  0  0  0  0  0  0  0  0  0
    5.5426    0.0000    0.0000 C   0  0  0  0  0  0  0  0  0  0  0  0
    6.9282   -0.8000    0.0000 H   0  0  0  0  0  0  0  0  0  0  0  0
    6.9282    0.8000    0.0000 H   0  0  0  0  0  0  0  0  0  0  0  0
    5.5426   -1.6000    0.0000 H   0  0  0  0  0  0  0  0  0  0  0  0
    1.3856    0.8000    0.0000 C   0  0  0  0  0  0  0  0  0  0  0  0
    0.7733    2.2782    0.0000 H   0  0  0  0  0  0  0  0  0  0  0  0
    1.9979    2.2782    0.0000 H   0  0  0  0  0  0  0  0  0  0  0  0
   -0.0000    0.0000    0.0000 C   0  0  0  0  0  0  0  0  0  0  0  0
    0.6123   -1.4782    0.0000 H   0  0  0  0  0  0  0  0  0  0  0  0
   -0.6123   -1.4782    0.0000 H   0  0  0  0  0  0  0  0  0  0  0  0
   -1.3857    0.8000    0.0000 C   0  0  0  0  0  0  0  0  0  0  0  0
   -2.7713    1.6000    0.0000 H   0  0  0  0  0  0  0  0  0  0  0  0
   -2.7713    0.0000    0.0000 H   0  0  0  0  0  0  0  0  0  0  0  0
   -1.3857    2.4000    0.0000 H   0  0  0  0  0  0  0  0  0  0  0  0
  1  2  1  0  0  0  0
  2  3  1  0  0  0  0
  2  4  1  0  0  0  0
  2  5  1  0  0  0  0
  5  6  1  0  0  0  0
  5  7  1  0  0  0  0
  5  8  1  0  0  0  0
  1  9  1  0  0  0  0
  9 10  1  0  0  0  0
  9 11  1  0  0  0  0
  9 12  1  0  0  0  0
 12 13  1  0  0  0  0
 12 14  1  0  0  0  0
 12 15  1  0  0  0  0
 15 16  1  0  0  0  0
 15 17  1  0  0  0  0
 15 18  1  0  0  0  0
M  END
> <ChemID>
104685

> <source_casrn>
4110-50-3

> <CAS>
4110-50-3

> <SMILES>
CCSCCC

> <NAME>
ETHYLPROPYLSULFIDE

> <preferred_name>
Ethyl propyl sulfide

> <iupac>
ethyl propyl sulfide

> <MPID>
23579

> <dsstox_substance_id>
DTXSID3041958

> <Canonical_QSARr>
CCSCCC

> <InChI_Code_QSARr>
InChI=1S/C5H12S/c1-3-5-6-4-2/h3-5H2,1-2H3

> <InChI Key_QSARr>
ZDDDFDQTSXYYSE-UHFFFAOYSA-N

> <Salt_Solvent>
?

> <BP>
118.6

$$$$
104690
  -INDIGO-08031720192D

 37 36  0  0  0  0  0  0  0  0999 V2000
   -4.1569    0.8000    0.0000 C   0  0  0  0  0  0  0  0  0  0  0  0
   -2.7713    0.0000    0.0000 C   0  0  0  0  0  0  0  0  0  0  0  0
   -1.3857    0.8000    0.0000 C   0  0  0  0  0  0  0  0  0  0  0  0
   -0.0001    0.0000    0.0000 C   0  0  0  0  0  0  0  0  0  0  0  0
    1.3855    0.8000    0.0000 C   0  0  0  0  0  0  0  0  0  0  0  0
    2.7714    0.0000    0.0000 C   0  0  0  0  0  0  0  0  0  0  0  0
    4.1570    0.8000    0.0000 C   0  0  0  0  0  0  0  0  0  0  0  0
    5.5426    0.0000    0.0000 C   0  0  0  0  0  0  0  0  0  0  0  0
    6.9282   -0.8000    0.0000 F   0  0  0  0  0  0  0  0  0  0  0  0
    6.9282    0.8000    0.0000 F   0  0  0  0  0  0  0  0  0  0  0  0
    5.5426   -1.6000    0.0000 F   0  0  0  0  0  0  0  0  0  0  0  0
    4.7691    2.2782    0.0000 F   0  0  0  0  0  0  0  0  0  0  0  0
    3.5446    2.2782    0.0000 F   0  0  0  0  0  0  0  0  0  0  0  0
    2.1590   -1.4782    0.0000 F   0  0  0  0  0  0  0  0  0  0  0  0
    3.3835   -1.4782    0.0000 F   0  0  0  0  0  0  0  0  0  0  0  0
    1.9979    2.2782    0.0000 F   0  0  0  0  0  0  0  0  0  0  0  0
    0.7734    2.2782    0.0000 F   0  0  0  0  0  0  0  0  0  0  0  0
   -0.6122   -1.4782    0.0000 F   0  0  0  0  0  0  0  0  0  0  0  0
    0.6123   -1.4782    0.0000 F   0  0  0  0  0  0  0  0  0  0  0  0
   -0.7733    2.2782    0.0000 F   0  0  0  0  0  0  0  0  0  0  0  0
   -1.9981    2.2782    0.0000 F   0  0  0  0  0  0  0  0  0  0  0  0
   -3.3837   -1.4782    0.0000 F   0  0  0  0  0  0  0  0  0  0  0  0
   -2.1589   -1.4782    0.0000 F   0  0  0  0  0  0  0  0  0  0  0  0
   -5.5425    0.0000    0.0000 S   0  0  0  0  0  0  0  0  0  0  0  0
   -6.3426    1.3856    0.0000 O   0  0  0  0  0  0  0  0  0  0  0  0
   -6.9283   -0.8000    0.0000 N   0  0  0  0  0  0  0  0  0  0  0  0
   -6.9283   -2.4000    0.0000 H   0  0  0  0  0  0  0  0  0  0  0  0
   -8.3139    0.0000    0.0000 C   0  0  0  0  0  0  0  0  0  0  0  0
   -7.7015    1.4782    0.0000 H   0  0  0  0  0  0  0  0  0  0  0  0
   -8.9261    1.4782    0.0000 H   0  0  0  0  0  0  0  0  0  0  0  0
   -9.6995   -0.8000    0.0000 C   0  0  0  0  0  0  0  0  0  0  0  0
  -11.0851   -1.6000    0.0000 H   0  0  0  0  0  0  0  0  0  0  0  0
  -11.0851    0.0000    0.0000 H   0  0  0  0  0  0  0  0  0  0  0  0
   -9.6995   -2.4000    0.0000 H   0  0  0  0  0  0  0  0  0  0  0  0
   -4.7426   -1.3856    0.0000 O   0  0  0  0  0  0  0  0  0  0  0  0
   -3.5447    2.2782    0.0000 F   0  0  0  0  0  0  0  0  0  0  0  0
   -4.7693    2.2782    0.0000 F   0  0  0  0  0  0  0  0  0  0  0  0
  1  2  1  0  0  0  0
  2  3  1  0  0  0  0
  3  4  1  0  0  0  0
  4  5  1  0  0  0  0
  5  6  1  0  0  0  0
  6  7  1  0  0  0  0
  7  8  1  0  0  0  0
  8  9  1  0  0  0  0
  8 10  1  0  0  0  0
  8 11  1  0  0  0  0
  7 12  1  0  0  0  0
  7 13  1  0  0  0  0
  6 14  1  0  0  0  0
  6 15  1  0  0  0  0
  5 16  1  0  0  0  0
  5 17  1  0  0  0  0
  4 18  1  0  0  0  0
  4 19  1  0  0  0  0
  3 20  1  0  0  0  0
  3 21  1  0  0  0  0
  2 22  1  0  0  0  0
  2 23  1  0  0  0  0
  1 24  1  0  0  0  0
 24 25  2  0  0  0  0
 24 26  1  0  0  0  0
 26 27  1  0  0  0  0
 26 28  1  0  0  0  0
 28 29  1  0  0  0  0
 28 30  1  0  0  0  0
 28 31  1  0  0  0  0
 31 32  1  0  0  0  0
 31 33  1  0  0  0  0
 31 34  1  0  0  0  0
 24 35  2  0  0  0  0
  1 36  1  0  0  0  0
  1 37  1  0  0  0  0
M  END
> <ChemID>
104690

> <source_casrn>
4151-50-2

> <CAS>
4151-50-2

> <SMILES>
CCNS(=O)(=O)C(F)(F)C(F)(F)C(F)(F)C(F)(F)C(F)(F)C(F)(F)C(F)(F)C(F)(F)F

> <NAME>
SULFLURAMID

> <preferred_name>
Sulfluramid

> <iupac>
N-ethyl-1,1,2,2,3,3,4,4,5,5,6,6,7,7,8,8,8-heptadecafluorooctane-1-sulfonamide

> <MPID>
23584

> <dsstox_substance_id>
DTXSID1032646

> <Canonical_QSARr>
CCNS(=O)(=O)C(F)(F)C(F)(F)C(F)(F)C(F)(F)C(F)(F)C(F)(F)C(F)(F)C(F)(F)F

> <InChI_Code_QSARr>
InChI=1S/C10H6F17NO2S/c1-2-28-31(29,30)10(26,27)8(21,22)6(17,18)4(13,14)3(11,12)5(15,16)7(19,20)9(23,24)25/h28H,2H2,1H3

> <InChI Key_QSARr>
CCEKAJIANROZEO-UHFFFAOYSA-N

> <Salt_Solvent>
?

> <BP>
196.0

$$$$
104694
  -INDIGO-08031720192D

 33 33  0  0  0  0  0  0  0  0999 V2000
   -2.5365    1.4060    0.0000 O   0  0  0  0  0  0  0  0  0  0  0  0
   -0.9404    1.2944    0.0000 C   0  0  0  0  0  0  0  0  0  0  0  0
   -0.2896    2.7561    0.0000 O   0  0  0  0  0  0  0  0  0  0  0  0
    0.0000    0.0000    0.0000 C   0  0  0  0  0  0  0  0  0  0  0  0
    1.1889   -1.0707    0.0000 C   0  0  0  0  0  0  0  0  0  0  0  0
    2.5154   -0.1759    0.0000 H   0  0  0  0  0  0  0  0  0  0  0  0
    2.5747   -1.8706    0.0000 H   0  0  0  0  0  0  0  0  0  0  0  0
    0.5383   -2.5323    0.0000 C   0  0  0  0  0  0  0  0  0  0  0  0
    2.0599   -3.0268    0.0000 H   0  0  0  0  0  0  0  0  0  0  0  0
    0.2055   -4.0973    0.0000 H   0  0  0  0  0  0  0  0  0  0  0  0
   -1.0529   -2.3651    0.0000 C   0  0  0  0  0  0  0  0  0  0  0  0
   -1.0529   -3.9650    0.0000 H   0  0  0  0  0  0  0  0  0  0  0  0
   -2.6441   -2.5323    0.0000 H   0  0  0  0  0  0  0  0  0  0  0  0
   -1.3855   -0.7999    0.0000 C   0  0  0  0  0  0  0  0  0  0  0  0
   -2.9073   -1.2944    0.0000 H   0  0  0  0  0  0  0  0  0  0  0  0
   -2.4972    0.3510    0.0000 H   0  0  0  0  0  0  0  0  0  0  0  0
    1.1889    1.0706    0.0000 C   0  0  0  0  0  0  0  0  0  0  0  0
    2.7735    0.8479    0.0000 O   0  0  0  0  0  0  0  0  0  0  0  0
    3.7585    2.1087    0.0000 C   0  0  0  0  0  0  0  0  0  0  0  0
    2.6371    3.2499    0.0000 H   0  0  0  0  0  0  0  0  0  0  0  0
    3.7724    3.7086    0.0000 H   0  0  0  0  0  0  0  0  0  0  0  0
    5.3429    1.8860    0.0000 C   0  0  0  0  0  0  0  0  0  0  0  0
    6.3279    3.1469    0.0000 H   0  0  0  0  0  0  0  0  0  0  0  0
    6.9274    1.6635    0.0000 H   0  0  0  0  0  0  0  0  0  0  0  0
    4.7436    3.3696    0.0000 H   0  0  0  0  0  0  0  0  0  0  0  0
    0.8563    2.6356    0.0000 O   0  0  0  0  0  0  0  0  0  0  0  0
   -3.2379    2.8441    0.0000 C   0  0  0  0  0  0  0  0  0  0  0  0
   -2.9189    4.4120    0.0000 H   0  0  0  0  0  0  0  0  0  0  0  0
   -1.9037    3.7272    0.0000 H   0  0  0  0  0  0  0  0  0  0  0  0
   -4.8340    2.9557    0.0000 C   0  0  0  0  0  0  0  0  0  0  0  0
   -5.5354    4.3938    0.0000 H   0  0  0  0  0  0  0  0  0  0  0  0
   -3.9394    4.2821    0.0000 H   0  0  0  0  0  0  0  0  0  0  0  0
   -6.4302    3.0673    0.0000 H   0  0  0  0  0  0  0  0  0  0  0  0
  1  2  1  0  0  0  0
  2  3  2  0  0  0  0
  2  4  1  0  0  0  0
  4  5  1  0  0  0  0
  5  6  1  0  0  0  0
  5  7  1  0  0  0  0
  5  8  1  0  0  0  0
  8  9  1  0  0  0  0
  8 10  1  0  0  0  0
  8 11  1  0  0  0  0
 11 12  1  0  0  0  0
 11 13  1  0  0  0  0
 11 14  1  0  0  0  0
 14  4  1  0  0  0  0
 14 15  1  0  0  0  0
 14 16  1  0  0  0  0
  4 17  1  0  0  0  0
 17 18  1  0  0  0  0
 18 19  1  0  0  0  0
 19 20  1  0  0  0  0
 19 21  1  0  0  0  0
 19 22  1  0  0  0  0
 22 23  1  0  0  0  0
 22 24  1  0  0  0  0
 22 25  1  0  0  0  0
 17 26  2  0  0  0  0
  1 27  1  0  0  0  0
 27 28  1  0  0  0  0
 27 29  1  0  0  0  0
 27 30  1  0  0  0  0
 30 31  1  0  0  0  0
 30 32  1  0  0  0  0
 30 33  1  0  0  0  0
M  END
> <ChemID>
104694

> <source_casrn>
4167-77-5

> <CAS>
4167-77-5

> <SMILES>
CCOC(=O)C1(CCCC1)C(=O)OCC

> <NAME>
Cyclopentane-1,1-dicarboxylic acid diethyl ester

> <preferred_name>
Diethyl 1,1-cyclopentanedicarboxylate

> <iupac>
diethyl cyclopentane-1,1-dicarboxylate

> <MPID>
23588

> <dsstox_substance_id>
DTXSID40194492

> <Canonical_QSARr>
CCOC(=O)C1(CCCC1)C(=O)OCC

> <InChI_Code_QSARr>
InChI=1S/C11H18O4/c1-3-14-9(12)11(7-5-6-8-11)10(13)15-4-2/h3-8H2,1-2H3

> <InChI Key_QSARr>
NAKRHRXBVSLQAO-UHFFFAOYSA-N

> <Salt_Solvent>
?

> <BP>
210.0

$$$$
104700
  -INDIGO-08031720192D

 14 13  0  0  0  0  0  0  0  0999 V2000
    2.7713    0.0000    0.0000 O   0  0  0  0  0  0  0  0  0  0  0  0
    2.7713   -1.6000    0.0000 H   0  0  0  0  0  0  0  0  0  0  0  0
    1.3857    0.8000    0.0000 C   0  0  0  0  0  0  0  0  0  0  0  0
    1.3857    2.4000    0.0000 H   0  0  0  0  0  0  0  0  0  0  0  0
    0.0000    0.0000    0.0000 C   0  0  0  0  0  0  0  0  0  0  0  0
    0.6122   -1.4782    0.0000 H   0  0  0  0  0  0  0  0  0  0  0  0
   -0.6122   -1.4782    0.0000 H   0  0  0  0  0  0  0  0  0  0  0  0
   -1.3856    0.8000    0.0000 C   0  0  0  0  0  0  0  0  0  0  0  0
   -2.7713    1.6000    0.0000 H   0  0  0  0  0  0  0  0  0  0  0  0
   -2.7713    0.0000    0.0000 H   0  0  0  0  0  0  0  0  0  0  0  0
   -1.3856    2.4000    0.0000 H   0  0  0  0  0  0  0  0  0  0  0  0
    2.7713    1.6000    0.0000 C   0  0  0  0  0  0  0  0  0  0  0  0
    4.1569    2.4000    0.0000 C   0  0  0  0  0  0  0  0  0  0  0  0
    5.5426    3.2000    0.0000 H   0  0  0  0  0  0  0  0  0  0  0  0
  1  2  1  0  0  0  0
  1  3  1  0  0  0  0
  3  4  1  0  0  0  0
  3  5  1  0  0  0  0
  5  6  1  0  0  0  0
  5  7  1  0  0  0  0
  5  8  1  0  0  0  0
  8  9  1  0  0  0  0
  8 10  1  0  0  0  0
  8 11  1  0  0  0  0
  3 12  1  0  0  0  0
 12 13  3  0  0  0  0
 13 14  1  0  0  0  0
M  END
> <ChemID>
104700

> <source_casrn>
4187-86-4

> <CAS>
3347-88-4

> <SMILES>
CC[C@@H](O)C#C

> <NAME>
Pent-1-yn-3-ol

> <preferred_name>
ZINC01690299

> <iupac>
C5H8O

> <MPID>
23594

> <dsstox_substance_id>
DTXSID70426379

> <Canonical_QSARr>
CCC(O)C#C

> <InChI_Code_QSARr>
InChI=1S/C5H8O/c1-3-5(6)4-2/h1,5-6H,4H2,2H3

> <InChI Key_QSARr>
LBSKEFWQPNVWTP-UHFFFAOYSA-N

> <Salt_Solvent>
?

> <BP>
125.0

$$$$
104704
  -INDIGO-08031720192D

 19 19  0  0  0  0  0  0  0  0999 V2000
   -4.1229    0.9599    0.0000 C   0  0  0  0  0  0  0  0  0  0  0  0
   -2.5316    1.1271    0.0000 C   0  0  0  0  0  0  0  0  0  0  0  0
   -1.5912   -0.1673    0.0000 O   0  0  0  0  0  0  0  0  0  0  0  0
    0.0001   -0.0000    0.0000 C   0  0  0  0  0  0  0  0  0  0  0  0
    0.0419    1.5995    0.0000 H   0  0  0  0  0  0  0  0  0  0  0  0
    1.1606    1.1014    0.0000 H   0  0  0  0  0  0  0  0  0  0  0  0
    0.9405   -1.2944    0.0000 C   0  0  0  0  0  0  0  0  0  0  0  0
    0.2898   -2.7561    0.0000 H   0  0  0  0  0  0  0  0  0  0  0  0
    2.5317   -1.1272    0.0000 C   0  0  0  0  0  0  0  0  0  0  0  0
    3.4721   -2.4216    0.0000 H   0  0  0  0  0  0  0  0  0  0  0  0
    3.1825    0.3345    0.0000 H   0  0  0  0  0  0  0  0  0  0  0  0
   -1.8809    2.5888    0.0000 O   0  0  0  0  0  0  0  0  0  0  0  0
   -5.1935    2.1490    0.0000 C   0  0  0  0  0  0  0  0  0  0  0  0
   -4.8609    3.7140    0.0000 H   0  0  0  0  0  0  0  0  0  0  0  0
   -6.6553    1.4982    0.0000 C   0  0  0  0  0  0  0  0  0  0  0  0
   -8.0408    2.2982    0.0000 H   0  0  0  0  0  0  0  0  0  0  0  0
   -6.4880   -0.0930    0.0000 C   0  0  0  0  0  0  0  0  0  0  0  0
   -7.6770   -1.1636    0.0000 H   0  0  0  0  0  0  0  0  0  0  0  0
   -4.9229   -0.4257    0.0000 O   0  0  0  0  0  0  0  0  0  0  0  0
  1  2  1  0  0  0  0
  2  3  1  0  0  0  0
  3  4  1  0  0  0  0
  4  5  1  0  0  0  0
  4  6  1  0  0  0  0
  4  7  1  0  0  0  0
  7  8  1  0  0  0  0
  7  9  2  0  0  0  0
  9 10  1  0  0  0  0
  9 11  1  0  0  0  0
  2 12  2  0  0  0  0
  1 13  2  0  0  0  0
 13 14  1  0  0  0  0
 13 15  1  0  0  0  0
 15 16  1  0  0  0  0
 15 17  2  0  0  0  0
 17 18  1  0  0  0  0
 17 19  1  0  0  0  0
 19  1  1  0  0  0  0
M  END
> <ChemID>
104704

> <source_casrn>
4208-49-5

> <CAS>
4208-49-5

> <SMILES>
C=CCOC(=O)c1ccco1

> <NAME>
2-Furancarboxylic acid, 2-propenyl ester

> <preferred_name>
2-Furancarboxylic acid, 2-propenyl ester

> <iupac>
prop-2-enyl furan-2-carboxylate

> <MPID>
23598

> <dsstox_substance_id>
DTXSID6063353

> <Canonical_QSARr>
C=CCOC(=O)c1ccco1

> <InChI_Code_QSARr>
InChI=1S/C8H8O3/c1-2-5-11-8(9)7-4-3-6-10-7/h2-4,6H,1,5H2

> <InChI Key_QSARr>
SJRQTHAMRUOPBJ-UHFFFAOYSA-N

> <Salt_Solvent>
?

> <BP>
207.5

$$$$
104708
  -INDIGO-08031720192D

 18 17  0  0  0  0  0  0  0  0999 V2000
   -4.1569    0.8000    0.0000 C   0  0  0  0  0  0  0  0  0  0  0  0
   -3.5447    2.2782    0.0000 H   0  0  0  0  0  0  0  0  0  0  0  0
   -4.7692    2.2782    0.0000 H   0  0  0  0  0  0  0  0  0  0  0  0
   -2.7712    0.0000    0.0000 C   0  0  0  0  0  0  0  0  0  0  0  0
   -2.7712   -1.6000    0.0000 H   0  0  0  0  0  0  0  0  0  0  0  0
   -1.3857    0.8000    0.0000 C   0  0  0  0  0  0  0  0  0  0  0  0
   -1.3857    2.4000    0.0000 H   0  0  0  0  0  0  0  0  0  0  0  0
   -0.0000    0.0000    0.0000 C   0  0  0  0  0  0  0  0  0  0  0  0
   -0.6124   -1.4782    0.0000 H   0  0  0  0  0  0  0  0  0  0  0  0
    0.6123   -1.4782    0.0000 H   0  0  0  0  0  0  0  0  0  0  0  0
    1.3856    0.8000    0.0000 C   0  0  0  0  0  0  0  0  0  0  0  0
    2.7713    1.6000    0.0000 H   0  0  0  0  0  0  0  0  0  0  0  0
    2.7713    0.0000    0.0000 H   0  0  0  0  0  0  0  0  0  0  0  0
    1.3856    2.4000    0.0000 H   0  0  0  0  0  0  0  0  0  0  0  0
   -5.5425    0.0000    0.0000 C   0  0  0  0  0  0  0  0  0  0  0  0
   -6.9282    0.8000    0.0000 O   0  0  0  0  0  0  0  0  0  0  0  0
   -8.3138    0.0000    0.0000 H   0  0  0  0  0  0  0  0  0  0  0  0
   -5.5425   -1.6000    0.0000 O   0  0  0  0  0  0  0  0  0  0  0  0
  1  2  1  0  0  0  0
  1  3  1  0  0  0  0
  1  4  1  0  0  0  0
  4  5  1  0  0  0  0
  4  6  2  0  0  0  0
  6  7  1  0  0  0  0
  6  8  1  0  0  0  0
  8  9  1  0  0  0  0
  8 10  1  0  0  0  0
  8 11  1  0  0  0  0
 11 12  1  0  0  0  0
 11 13  1  0  0  0  0
 11 14  1  0  0  0  0
  1 15  1  0  0  0  0
 15 16  1  0  0  0  0
 16 17  1  0  0  0  0
 15 18  2  0  0  0  0
M  END
> <ChemID>
104708

> <source_casrn>
4219-24-3

> <CAS>
4219-24-3

> <SMILES>
CCC=CCC(O)=O

> <NAME>
3-Hexenoic acid

> <preferred_name>
3-Hexenoic acid

> <iupac>


> <MPID>
23602

> <dsstox_substance_id>
DTXSID5063362

> <Canonical_QSARr>
CCC=CCC(O)=O

> <InChI_Code_QSARr>
InChI=1S/C6H10O2/c1-2-3-4-5-6(7)8/h3-4H,2,5H2,1H3,(H,7,8)/b4-3+

> <InChI Key_QSARr>
XXHDAWYDNSXJQM-ONEGZZNKSA-N

> <Salt_Solvent>
?

> <BP>
208.0

$$$$
104712
  -INDIGO-08031720192D

 22 21  0  0  0  0  0  0  0  0999 V2000
    0.8001   -1.3857    0.0000 C   0  0  0  0  0  0  0  0  0  0  0  0
    1.6000   -2.7713    0.0000 H   0  0  0  0  0  0  0  0  0  0  0  0
   -0.0000   -2.7713    0.0000 H   0  0  0  0  0  0  0  0  0  0  0  0
    2.4000   -1.3857    0.0000 H   0  0  0  0  0  0  0  0  0  0  0  0
   -0.0000    0.0000    0.0000 C   0  0  0  0  0  0  0  0  0  0  0  0
   -1.3857   -0.8000    0.0000 H   0  0  0  0  0  0  0  0  0  0  0  0
   -0.8000    1.3856    0.0000 C   0  0  0  0  0  0  0  0  0  0  0  0
   -1.6001    2.7713    0.0000 H   0  0  0  0  0  0  0  0  0  0  0  0
   -2.4000    1.3856    0.0000 H   0  0  0  0  0  0  0  0  0  0  0  0
   -0.0000    2.7713    0.0000 H   0  0  0  0  0  0  0  0  0  0  0  0
    1.3857    0.8000    0.0000 S   0  0  0  0  0  0  0  0  0  0  0  0
    2.7713    0.0000    0.0000 S   0  0  0  0  0  0  0  0  0  0  0  0
    4.1569    0.8000    0.0000 C   0  0  0  0  0  0  0  0  0  0  0  0
    3.3569    2.1856    0.0000 H   0  0  0  0  0  0  0  0  0  0  0  0
    5.5425    1.6000    0.0000 C   0  0  0  0  0  0  0  0  0  0  0  0
    6.9282    2.4000    0.0000 H   0  0  0  0  0  0  0  0  0  0  0  0
    6.9282    0.8000    0.0000 H   0  0  0  0  0  0  0  0  0  0  0  0
    5.5425    3.2000    0.0000 H   0  0  0  0  0  0  0  0  0  0  0  0
    4.9569   -0.5857    0.0000 C   0  0  0  0  0  0  0  0  0  0  0  0
    5.7569   -1.9713    0.0000 H   0  0  0  0  0  0  0  0  0  0  0  0
    6.5570   -0.5857    0.0000 H   0  0  0  0  0  0  0  0  0  0  0  0
    4.1569   -1.9713    0.0000 H   0  0  0  0  0  0  0  0  0  0  0  0
  1  2  1  0  0  0  0
  1  3  1  0  0  0  0
  1  4  1  0  0  0  0
  1  5  1  0  0  0  0
  5  6  1  0  0  0  0
  5  7  1  0  0  0  0
  7  8  1  0  0  0  0
  7  9  1  0  0  0  0
  7 10  1  0  0  0  0
  5 11  1  0  0  0  0
 11 12  1  0  0  0  0
 12 13  1  0  0  0  0
 13 14  1  0  0  0  0
 13 15  1  0  0  0  0
 15 16  1  0  0  0  0
 15 17  1  0  0  0  0
 15 18  1  0  0  0  0
 13 19  1  0  0  0  0
 19 20  1  0  0  0  0
 19 21  1  0  0  0  0
 19 22  1  0  0  0  0
M  END
> <ChemID>
104712

> <source_casrn>
4253-89-8

> <CAS>
4253-89-8

> <SMILES>
CC(C)SSC(C)C

> <NAME>
Isopropyl disulfide

> <preferred_name>
Isopropyl disulfide

> <iupac>
dipropan-2-yl disulfide

> <MPID>
23606

> <dsstox_substance_id>
DTXSID6022216

> <Canonical_QSARr>
CC(C)SSC(C)C

> <InChI_Code_QSARr>
InChI=1S/C6H14S2/c1-5(2)7-8-6(3)4/h5-6H,1-4H3

> <InChI Key_QSARr>
LZAZXBXPKRULLB-UHFFFAOYSA-N

> <Salt_Solvent>
?

> <BP>
177.0

$$$$
104716
  -INDIGO-08031720192D

 47 46  0  0  0  0  0  0  0  0999 V2000
    6.9282    0.8000    0.0000 O   0  0  0  0  0  0  0  0  0  0  0  0
    8.3138    0.0000    0.0000 C   0  0  0  0  0  0  0  0  0  0  0  0
    8.9260   -1.4782    0.0000 H   0  0  0  0  0  0  0  0  0  0  0  0
    7.7017   -1.4782    0.0000 H   0  0  0  0  0  0  0  0  0  0  0  0
    9.6995    0.8000    0.0000 C   0  0  0  0  0  0  0  0  0  0  0  0
    9.0874    2.2782    0.0000 H   0  0  0  0  0  0  0  0  0  0  0  0
   10.3116    2.2782    0.0000 H   0  0  0  0  0  0  0  0  0  0  0  0
   11.0851    0.0000    0.0000 C   0  0  0  0  0  0  0  0  0  0  0  0
   11.6973   -1.4782    0.0000 H   0  0  0  0  0  0  0  0  0  0  0  0
   10.4730   -1.4782    0.0000 H   0  0  0  0  0  0  0  0  0  0  0  0
   12.4708    0.8000    0.0000 C   0  0  0  0  0  0  0  0  0  0  0  0
   11.8586    2.2782    0.0000 H   0  0  0  0  0  0  0  0  0  0  0  0
   13.0829    2.2782    0.0000 H   0  0  0  0  0  0  0  0  0  0  0  0
   13.8564    0.0000    0.0000 C   0  0  0  0  0  0  0  0  0  0  0  0
   14.4685   -1.4782    0.0000 H   0  0  0  0  0  0  0  0  0  0  0  0
   13.2443   -1.4782    0.0000 H   0  0  0  0  0  0  0  0  0  0  0  0
   15.2420    0.8000    0.0000 C   0  0  0  0  0  0  0  0  0  0  0  0
   14.6299    2.2782    0.0000 H   0  0  0  0  0  0  0  0  0  0  0  0
   15.8542    2.2782    0.0000 H   0  0  0  0  0  0  0  0  0  0  0  0
   16.6277    0.0000    0.0000 C   0  0  0  0  0  0  0  0  0  0  0  0
   18.0133   -0.8000    0.0000 H   0  0  0  0  0  0  0  0  0  0  0  0
   18.0133    0.8000    0.0000 H   0  0  0  0  0  0  0  0  0  0  0  0
   16.6277   -1.6000    0.0000 H   0  0  0  0  0  0  0  0  0  0  0  0
    5.5426    0.0000    0.0000 C   0  0  0  0  0  0  0  0  0  0  0  0
    5.5426   -1.6000    0.0000 O   0  0  0  0  0  0  0  0  0  0  0  0
    4.1569    0.8000    0.0000 C   0  0  0  0  0  0  0  0  0  0  0  0
    3.5448    2.2782    0.0000 H   0  0  0  0  0  0  0  0  0  0  0  0
    4.7690    2.2782    0.0000 H   0  0  0  0  0  0  0  0  0  0  0  0
    2.7713    0.0000    0.0000 C   0  0  0  0  0  0  0  0  0  0  0  0
    3.3834   -1.4782    0.0000 H   0  0  0  0  0  0  0  0  0  0  0  0
    2.1592   -1.4782    0.0000 H   0  0  0  0  0  0  0  0  0  0  0  0
    1.3856    0.8000    0.0000 C   0  0  0  0  0  0  0  0  0  0  0  0
    0.7735    2.2782    0.0000 H   0  0  0  0  0  0  0  0  0  0  0  0
    1.9978    2.2782    0.0000 H   0  0  0  0  0  0  0  0  0  0  0  0
    0.0000    0.0000    0.0000 C   0  0  0  0  0  0  0  0  0  0  0  0
    0.6121   -1.4782    0.0000 H   0  0  0  0  0  0  0  0  0  0  0  0
   -0.6121   -1.4782    0.0000 H   0  0  0  0  0  0  0  0  0  0  0  0
   -1.3856    0.8000    0.0000 C   0  0  0  0  0  0  0  0  0  0  0  0
   -1.9978    2.2782    0.0000 H   0  0  0  0  0  0  0  0  0  0  0  0
   -0.7735    2.2782    0.0000 H   0  0  0  0  0  0  0  0  0  0  0  0
   -2.7713    0.0000    0.0000 C   0  0  0  0  0  0  0  0  0  0  0  0
   -2.1592   -1.4782    0.0000 H   0  0  0  0  0  0  0  0  0  0  0  0
   -3.3834   -1.4782    0.0000 H   0  0  0  0  0  0  0  0  0  0  0  0
   -4.1569    0.8000    0.0000 C   0  0  0  0  0  0  0  0  0  0  0  0
   -5.5426    1.6000    0.0000 H   0  0  0  0  0  0  0  0  0  0  0  0
   -5.5426    0.0000    0.0000 H   0  0  0  0  0  0  0  0  0  0  0  0
   -4.1569    2.4000    0.0000 H   0  0  0  0  0  0  0  0  0  0  0  0
  1  2  1  0  0  0  0
  2  3  1  0  0  0  0
  2  4  1  0  0  0  0
  2  5  1  0  0  0  0
  5  6  1  0  0  0  0
  5  7  1  0  0  0  0
  5  8  1  0  0  0  0
  8  9  1  0  0  0  0
  8 10  1  0  0  0  0
  8 11  1  0  0  0  0
 11 12  1  0  0  0  0
 11 13  1  0  0  0  0
 11 14  1  0  0  0  0
 14 15  1  0  0  0  0
 14 16  1  0  0  0  0
 14 17  1  0  0  0  0
 17 18  1  0  0  0  0
 17 19  1  0  0  0  0
 17 20  1  0  0  0  0
 20 21  1  0  0  0  0
 20 22  1  0  0  0  0
 20 23  1  0  0  0  0
  1 24  1  0  0  0  0
 24 25  2  0  0  0  0
 24 26  1  0  0  0  0
 26 27  1  0  0  0  0
 26 28  1  0  0  0  0
 26 29  1  0  0  0  0
 29 30  1  0  0  0  0
 29 31  1  0  0  0  0
 29 32  1  0  0  0  0
 32 33  1  0  0  0  0
 32 34  1  0  0  0  0
 32 35  1  0  0  0  0
 35 36  1  0  0  0  0
 35 37  1  0  0  0  0
 35 38  1  0  0  0  0
 38 39  1  0  0  0  0
 38 40  1  0  0  0  0
 38 41  1  0  0  0  0
 41 42  1  0  0  0  0
 41 43  1  0  0  0  0
 41 44  1  0  0  0  0
 44 45  1  0  0  0  0
 44 46  1  0  0  0  0
 44 47  1  0  0  0  0
M  END
> <ChemID>
104716

> <source_casrn>
4265-97-8

> <CAS>
4265-97-8

> <SMILES>
CCCCCCCC(=O)OCCCCCCC

> <NAME>
Octanoic acid heptyl ester

> <preferred_name>
Heptyl octanoate

> <iupac>
Heptyl octanoate

> <MPID>
23610

> <dsstox_substance_id>
DTXSID80195382

> <Canonical_QSARr>
CCCCCCCC(=O)OCCCCCCC

> <InChI_Code_QSARr>
InChI=1S/C15H30O2/c1-3-5-7-9-11-13-15(16)17-14-12-10-8-6-4-2/h3-14H2,1-2H3

> <InChI Key_QSARr>
TZXWLJYLYILFGM-UHFFFAOYSA-N

> <Salt_Solvent>
?

> <BP>
290.5

$$$$
104720
  -INDIGO-08031720192D

 19 19  0  0  0  0  0  0  0  0999 V2000
   -1.6000    2.7713    0.0000 O   0  0  0  0  0  0  0  0  0  0  0  0
   -2.4001    1.3856    0.0000 C   0  0  0  0  0  0  0  0  0  0  0  0
   -1.6000   -0.0000    0.0000 N   0  0  0  0  0  0  0  0  0  0  0  0
    0.0000    0.0000    0.0000 C   0  0  0  0  0  0  0  0  0  0  0  0
    0.8000    1.3856    0.0000 C   0  0  0  0  0  0  0  0  0  0  0  0
    0.0000    2.7713    0.0000 H   0  0  0  0  0  0  0  0  0  0  0  0
    2.4000    1.3856    0.0000 C   0  0  0  0  0  0  0  0  0  0  0  0
    3.2001    2.7713    0.0000 H   0  0  0  0  0  0  0  0  0  0  0  0
    3.2001    0.0000    0.0000 C   0  0  0  0  0  0  0  0  0  0  0  0
    4.8000   -0.0000    0.0000 H   0  0  0  0  0  0  0  0  0  0  0  0
    2.4000   -1.3856    0.0000 C   0  0  0  0  0  0  0  0  0  0  0  0
    3.2001   -2.7713    0.0000 H   0  0  0  0  0  0  0  0  0  0  0  0
    0.8000   -1.3856    0.0000 C   0  0  0  0  0  0  0  0  0  0  0  0
    0.0000   -2.7713    0.0000 H   0  0  0  0  0  0  0  0  0  0  0  0
   -2.4001   -1.3856    0.0000 C   0  0  0  0  0  0  0  0  0  0  0  0
   -3.2000   -2.7713    0.0000 H   0  0  0  0  0  0  0  0  0  0  0  0
   -4.0000   -1.3856    0.0000 H   0  0  0  0  0  0  0  0  0  0  0  0
   -1.6000   -2.7713    0.0000 H   0  0  0  0  0  0  0  0  0  0  0  0
   -4.0000    1.3856    0.0000 Cl  0  0  0  0  0  0  0  0  0  0  0  0
  1  2  2  0  0  0  0
  2  3  1  0  0  0  0
  3  4  1  0  0  0  0
  4  5  1  0  0  0  0
  5  6  1  0  0  0  0
  5  7  2  0  0  0  0
  7  8  1  0  0  0  0
  7  9  1  0  0  0  0
  9 10  1  0  0  0  0
  9 11  2  0  0  0  0
 11 12  1  0  0  0  0
 11 13  1  0  0  0  0
 13  4  2  0  0  0  0
 13 14  1  0  0  0  0
  3 15  1  0  0  0  0
 15 16  1  0  0  0  0
 15 17  1  0  0  0  0
 15 18  1  0  0  0  0
  2 19  1  0  0  0  0
M  END
> <ChemID>
104720

> <source_casrn>
4285-42-1

> <CAS>
4285-42-1

> <SMILES>
CN(C(=O)Cl)c1ccccc1

> <NAME>
Carbamic chloride, methylphenyl-

> <preferred_name>
Carbamic chloride, methylphenyl-

> <iupac>
N-Methyl-N-phenylcarbamoyl chloride

> <MPID>
23614

> <dsstox_substance_id>
DTXSID7063396

> <Canonical_QSARr>
CN(C(=O)Cl)c1ccccc1

> <InChI_Code_QSARr>
InChI=1S/C8H8ClNO/c1-10(8(9)11)7-5-3-2-4-6-7/h2-6H,1H3

> <InChI Key_QSARr>
CPGWSLFYXMRNDV-UHFFFAOYSA-N

> <Salt_Solvent>
?

> <BP>
280.0

$$$$
104724
  -INDIGO-08031720192D

 38 37  0  0  0  0  0  0  0  0999 V2000
    6.9282   -0.8000    0.0000 C   0  0  0  0  0  0  0  0  0  0  0  0
    8.3138   -1.6000    0.0000 H   0  0  0  0  0  0  0  0  0  0  0  0
    8.3138    0.0000    0.0000 H   0  0  0  0  0  0  0  0  0  0  0  0
    5.5426    0.0000    0.0000 C   0  0  0  0  0  0  0  0  0  0  0  0
    6.1548    1.4782    0.0000 H   0  0  0  0  0  0  0  0  0  0  0  0
    4.9302    1.4782    0.0000 H   0  0  0  0  0  0  0  0  0  0  0  0
    4.1570   -0.8000    0.0000 C   0  0  0  0  0  0  0  0  0  0  0  0
    3.5446   -2.2782    0.0000 H   0  0  0  0  0  0  0  0  0  0  0  0
    4.7692   -2.2782    0.0000 H   0  0  0  0  0  0  0  0  0  0  0  0
    2.7712    0.0000    0.0000 C   0  0  0  0  0  0  0  0  0  0  0  0
    3.3836    1.4782    0.0000 H   0  0  0  0  0  0  0  0  0  0  0  0
    2.1590    1.4782    0.0000 H   0  0  0  0  0  0  0  0  0  0  0  0
    1.3856   -0.8000    0.0000 C   0  0  0  0  0  0  0  0  0  0  0  0
    0.7735   -2.2782    0.0000 H   0  0  0  0  0  0  0  0  0  0  0  0
    1.9980   -2.2782    0.0000 H   0  0  0  0  0  0  0  0  0  0  0  0
   -0.0000    0.0000    0.0000 C   0  0  0  0  0  0  0  0  0  0  0  0
    0.6124    1.4782    0.0000 H   0  0  0  0  0  0  0  0  0  0  0  0
   -0.6124    1.4782    0.0000 H   0  0  0  0  0  0  0  0  0  0  0  0
   -1.3856   -0.8000    0.0000 C   0  0  0  0  0  0  0  0  0  0  0  0
   -1.9980   -2.2782    0.0000 H   0  0  0  0  0  0  0  0  0  0  0  0
   -0.7732   -2.2782    0.0000 H   0  0  0  0  0  0  0  0  0  0  0  0
   -2.7712    0.0000    0.0000 C   0  0  0  0  0  0  0  0  0  0  0  0
   -2.1591    1.4782    0.0000 H   0  0  0  0  0  0  0  0  0  0  0  0
   -3.3836    1.4782    0.0000 H   0  0  0  0  0  0  0  0  0  0  0  0
   -4.1568   -0.8000    0.0000 C   0  0  0  0  0  0  0  0  0  0  0  0
   -4.7692   -2.2782    0.0000 H   0  0  0  0  0  0  0  0  0  0  0  0
   -3.5447   -2.2782    0.0000 H   0  0  0  0  0  0  0  0  0  0  0  0
   -5.5427    0.0000    0.0000 C   0  0  0  0  0  0  0  0  0  0  0  0
   -4.9303    1.4782    0.0000 H   0  0  0  0  0  0  0  0  0  0  0  0
   -6.1548    1.4782    0.0000 H   0  0  0  0  0  0  0  0  0  0  0  0
   -6.9283   -0.8000    0.0000 C   0  0  0  0  0  0  0  0  0  0  0  0
   -7.5404   -2.2782    0.0000 H   0  0  0  0  0  0  0  0  0  0  0  0
   -6.3159   -2.2782    0.0000 H   0  0  0  0  0  0  0  0  0  0  0  0
   -8.3139    0.0000    0.0000 C   0  0  0  0  0  0  0  0  0  0  0  0
   -9.6995    0.8000    0.0000 H   0  0  0  0  0  0  0  0  0  0  0  0
   -9.6995   -0.8000    0.0000 H   0  0  0  0  0  0  0  0  0  0  0  0
   -8.3139    1.6000    0.0000 H   0  0  0  0  0  0  0  0  0  0  0  0
    6.9282   -2.4000    0.0000 I   0  0  0  0  0  0  0  0  0  0  0  0
  1  2  1  0  0  0  0
  1  3  1  0  0  0  0
  1  4  1  0  0  0  0
  4  5  1  0  0  0  0
  4  6  1  0  0  0  0
  4  7  1  0  0  0  0
  7  8  1  0  0  0  0
  7  9  1  0  0  0  0
  7 10  1  0  0  0  0
 10 11  1  0  0  0  0
 10 12  1  0  0  0  0
 10 13  1  0  0  0  0
 13 14  1  0  0  0  0
 13 15  1  0  0  0  0
 13 16  1  0  0  0  0
 16 17  1  0  0  0  0
 16 18  1  0  0  0  0
 16 19  1  0  0  0  0
 19 20  1  0  0  0  0
 19 21  1  0  0  0  0
 19 22  1  0  0  0  0
 22 23  1  0  0  0  0
 22 24  1  0  0  0  0
 22 25  1  0  0  0  0
 25 26  1  0  0  0  0
 25 27  1  0  0  0  0
 25 28  1  0  0  0  0
 28 29  1  0  0  0  0
 28 30  1  0  0  0  0
 28 31  1  0  0  0  0
 31 32  1  0  0  0  0
 31 33  1  0  0  0  0
 31 34  1  0  0  0  0
 34 35  1  0  0  0  0
 34 36  1  0  0  0  0
 34 37  1  0  0  0  0
  1 38  1  0  0  0  0
M  END
> <ChemID>
104724

> <source_casrn>
4292-19-7

> <CAS>
4292-19-7

> <SMILES>
CCCCCCCCCCCCI

> <NAME>
1-IODODODECANE

> <preferred_name>
Dodecane,1-iodo-

> <iupac>
1-iodododecane

> <MPID>
23618

> <dsstox_substance_id>
DTXSID1049302

> <Canonical_QSARr>
CCCCCCCCCCCCI

> <InChI_Code_QSARr>
InChI=1S/C12H25I/c1-2-3-4-5-6-7-8-9-10-11-12-13/h2-12H2,1H3

> <InChI Key_QSARr>
GCDPERPXPREHJF-UHFFFAOYSA-N

> <Salt_Solvent>
?

> <BP>
298.2

$$$$
104728
  -INDIGO-08031720192D

 17 17  0  0  0  0  0  0  0  0999 V2000
    2.4000    1.3856    0.0000 O   0  0  0  0  0  0  0  0  0  0  0  0
    1.6000    2.7713    0.0000 C   0  0  0  0  0  0  0  0  0  0  0  0
    3.1035    3.3185    0.0000 H   0  0  0  0  0  0  0  0  0  0  0  0
    1.3222    4.3470    0.0000 H   0  0  0  0  0  0  0  0  0  0  0  0
    0.0000    2.7713    0.0000 C   0  0  0  0  0  0  0  0  0  0  0  0
    0.2779    4.3470    0.0000 H   0  0  0  0  0  0  0  0  0  0  0  0
   -1.5035    3.3185    0.0000 H   0  0  0  0  0  0  0  0  0  0  0  0
   -0.8000    1.3856    0.0000 N   0  0  0  0  0  0  0  0  0  0  0  0
   -2.4000    1.3856    0.0000 N   0  0  0  0  0  0  0  0  0  0  0  0
   -3.2000    2.7713    0.0000 H   0  0  0  0  0  0  0  0  0  0  0  0
   -3.2000   -0.0000    0.0000 H   0  0  0  0  0  0  0  0  0  0  0  0
    0.0000   -0.0000    0.0000 C   0  0  0  0  0  0  0  0  0  0  0  0
   -1.5035   -0.5472    0.0000 H   0  0  0  0  0  0  0  0  0  0  0  0
    0.2779   -1.5757    0.0000 H   0  0  0  0  0  0  0  0  0  0  0  0
    1.6000   -0.0000    0.0000 C   0  0  0  0  0  0  0  0  0  0  0  0
    1.3222   -1.5757    0.0000 H   0  0  0  0  0  0  0  0  0  0  0  0
    3.1035   -0.5472    0.0000 H   0  0  0  0  0  0  0  0  0  0  0  0
  1  2  1  0  0  0  0
  2  3  1  0  0  0  0
  2  4  1  0  0  0  0
  2  5  1  0  0  0  0
  5  6  1  0  0  0  0
  5  7  1  0  0  0  0
  5  8  1  0  0  0  0
  8  9  1  0  0  0  0
  9 10  1  0  0  0  0
  9 11  1  0  0  0  0
  8 12  1  0  0  0  0
 12 13  1  0  0  0  0
 12 14  1  0  0  0  0
 12 15  1  0  0  0  0
 15  1  1  0  0  0  0
 15 16  1  0  0  0  0
 15 17  1  0  0  0  0
M  END
> <ChemID>
104728

> <source_casrn>
4319-49-7

> <CAS>
4319-49-7

> <SMILES>
NN1CCOCC1

> <NAME>
Morpholin-4-ylamine

> <preferred_name>
4-Morpholinamine (9CI)

> <iupac>
morpholin-4-amine

> <MPID>
23622

> <dsstox_substance_id>
DTXSID60195769

> <Canonical_QSARr>
NN1CCOCC1

> <InChI_Code_QSARr>
InChI=1S/C4H10N2O/c5-6-1-3-7-4-2-6/h1-5H2

> <InChI Key_QSARr>
MKQLBNJQQZRQJU-UHFFFAOYSA-N

> <Salt_Solvent>
?

> <BP>
166.0

$$$$
104732
  -INDIGO-08031720192D

 21 21  0  0  0  0  0  0  0  0999 V2000
   -0.0001   -0.0000    0.0000 C   0  0  0  0  0  0  0  0  0  0  0  0
    1.2257   -1.0285    0.0000 H   0  0  0  0  0  0  0  0  0  0  0  0
   -0.8001    1.3857    0.0000 C   0  0  0  0  0  0  0  0  0  0  0  0
    0.7035    1.9329    0.0000 H   0  0  0  0  0  0  0  0  0  0  0  0
   -1.0778    2.9613    0.0000 H   0  0  0  0  0  0  0  0  0  0  0  0
   -2.3999    1.3857    0.0000 C   0  0  0  0  0  0  0  0  0  0  0  0
   -2.1222    2.9613    0.0000 H   0  0  0  0  0  0  0  0  0  0  0  0
   -3.9035    1.9329    0.0000 H   0  0  0  0  0  0  0  0  0  0  0  0
   -3.2000   -0.0000    0.0000 C   0  0  0  0  0  0  0  0  0  0  0  0
   -4.4257    1.0285    0.0000 H   0  0  0  0  0  0  0  0  0  0  0  0
   -4.4257   -1.0285    0.0000 H   0  0  0  0  0  0  0  0  0  0  0  0
   -2.3999   -1.3857    0.0000 C   0  0  0  0  0  0  0  0  0  0  0  0
   -3.9035   -1.9329    0.0000 H   0  0  0  0  0  0  0  0  0  0  0  0
   -2.1222   -2.9613    0.0000 H   0  0  0  0  0  0  0  0  0  0  0  0
   -0.8001   -1.3857    0.0000 C   0  0  0  0  0  0  0  0  0  0  0  0
   -1.0778   -2.9613    0.0000 H   0  0  0  0  0  0  0  0  0  0  0  0
    0.7035   -1.9329    0.0000 H   0  0  0  0  0  0  0  0  0  0  0  0
    1.2257    1.0285    0.0000 O   0  0  0  0  0  0  0  0  0  0  0  0
    2.7291    0.4812    0.0000 C   0  0  0  0  0  0  0  0  0  0  0  0
    3.9549    1.5097    0.0000 H   0  0  0  0  0  0  0  0  0  0  0  0
    3.0070   -1.0945    0.0000 O   0  0  0  0  0  0  0  0  0  0  0  0
  1  2  1  0  0  0  0
  1  3  1  0  0  0  0
  3  4  1  0  0  0  0
  3  5  1  0  0  0  0
  3  6  1  0  0  0  0
  6  7  1  0  0  0  0
  6  8  1  0  0  0  0
  6  9  1  0  0  0  0
  9 10  1  0  0  0  0
  9 11  1  0  0  0  0
  9 12  1  0  0  0  0
 12 13  1  0  0  0  0
 12 14  1  0  0  0  0
 12 15  1  0  0  0  0
 15  1  1  0  0  0  0
 15 16  1  0  0  0  0
 15 17  1  0  0  0  0
  1 18  1  0  0  0  0
 18 19  1  0  0  0  0
 19 20  1  0  0  0  0
 19 21  2  0  0  0  0
M  END
> <ChemID>
104732

> <source_casrn>
4351-54-6

> <CAS>
4351-54-6

> <SMILES>
O=COC1CCCCC1

> <NAME>
FORMIC ACID, CYCLOHEXYL ESTER

> <preferred_name>
Formic acid, cyclohexyl ester

> <iupac>
Cyclohexyl formate

> <MPID>
23626

> <dsstox_substance_id>
DTXSID2063426

> <Canonical_QSARr>
O=COC1CCCCC1

> <InChI_Code_QSARr>
InChI=1S/C7H12O2/c8-6-9-7-4-2-1-3-5-7/h6-7H,1-5H2

> <InChI Key_QSARr>
VUXKVKAHWOVIDN-UHFFFAOYSA-N

> <Salt_Solvent>
?

> <BP>
163.0

$$$$
104739
  -INDIGO-08031720192D

 13 13  0  0  0  0  0  0  0  0999 V2000
   -3.2000    0.0000    0.0000 N   0  0  0  0  0  0  0  0  0  0  0  0
   -1.6000    0.0000    0.0000 C   0  0  0  0  0  0  0  0  0  0  0  0
    0.0000    0.0000    0.0000 C   0  0  0  0  0  0  0  0  0  0  0  0
   -0.0000    1.6000    0.0000 H   0  0  0  0  0  0  0  0  0  0  0  0
    0.0000   -1.6000    0.0000 C   0  0  0  0  0  0  0  0  0  0  0  0
   -1.6000   -1.6000    0.0000 H   0  0  0  0  0  0  0  0  0  0  0  0
   -0.0000   -3.2000    0.0000 H   0  0  0  0  0  0  0  0  0  0  0  0
    1.6000   -1.6000    0.0000 C   0  0  0  0  0  0  0  0  0  0  0  0
    1.6000   -3.2000    0.0000 H   0  0  0  0  0  0  0  0  0  0  0  0
    3.2000   -1.6000    0.0000 H   0  0  0  0  0  0  0  0  0  0  0  0
    1.6000    0.0000    0.0000 C   0  0  0  0  0  0  0  0  0  0  0  0
    3.2000    0.0000    0.0000 H   0  0  0  0  0  0  0  0  0  0  0  0
    1.6000    1.6000    0.0000 H   0  0  0  0  0  0  0  0  0  0  0  0
  1  2  3  0  0  0  0
  2  3  1  0  0  0  0
  3  4  1  0  0  0  0
  3  5  1  0  0  0  0
  5  6  1  0  0  0  0
  5  7  1  0  0  0  0
  5  8  1  0  0  0  0
  8  9  1  0  0  0  0
  8 10  1  0  0  0  0
  8 11  1  0  0  0  0
 11  3  1  0  0  0  0
 11 12  1  0  0  0  0
 11 13  1  0  0  0  0
M  END
> <ChemID>
104739

> <source_casrn>
4426-11-3

> <CAS>
4426-11-3

> <SMILES>
N#CC1CCC1

> <NAME>
Cyclobutanecarbonitrile

> <preferred_name>
Cyanocyclobutane

> <iupac>
Cyclobutanecarbonitrile

> <MPID>
23631

> <dsstox_substance_id>
DTXSID30196086

> <Canonical_QSARr>
N#CC1CCC1

> <InChI_Code_QSARr>
InChI=1S/C5H7N/c6-4-5-2-1-3-5/h5H,1-3H2

> <InChI Key_QSARr>
GFBLFDSCAKHHGX-UHFFFAOYSA-N

> <Salt_Solvent>
?

> <BP>
149.6

$$$$
104743
  -INDIGO-08031720192D

 21 20  0  0  0  0  0  0  0  0999 V2000
    2.4000   -1.3856    0.0000 C   0  0  0  0  0  0  0  0  0  0  0  0
    3.2000   -2.7713    0.0000 H   0  0  0  0  0  0  0  0  0  0  0  0
    4.0000   -1.3856    0.0000 H   0  0  0  0  0  0  0  0  0  0  0  0
    1.6000   -2.7713    0.0000 H   0  0  0  0  0  0  0  0  0  0  0  0
    1.6000    0.0000    0.0000 C   0  0  0  0  0  0  0  0  0  0  0  0
    0.0000    0.0000    0.0000 C   0  0  0  0  0  0  0  0  0  0  0  0
    0.0000   -1.6000    0.0000 H   0  0  0  0  0  0  0  0  0  0  0  0
   -1.5756   -0.2779    0.0000 C   0  0  0  0  0  0  0  0  0  0  0  0
   -2.0568    1.2481    0.0000 H   0  0  0  0  0  0  0  0  0  0  0  0
   -2.9949    0.4610    0.0000 H   0  0  0  0  0  0  0  0  0  0  0  0
   -2.1229   -1.7814    0.0000 C   0  0  0  0  0  0  0  0  0  0  0  0
   -3.6987   -2.0592    0.0000 C   0  0  0  0  0  0  0  0  0  0  0  0
   -5.2743   -2.3370    0.0000 H   0  0  0  0  0  0  0  0  0  0  0  0
   -4.2459   -3.5627    0.0000 H   0  0  0  0  0  0  0  0  0  0  0  0
   -4.7271   -0.8335    0.0000 H   0  0  0  0  0  0  0  0  0  0  0  0
   -1.0945   -3.0070    0.0000 O   0  0  0  0  0  0  0  0  0  0  0  0
    0.0000    1.6000    0.0000 C   0  0  0  0  0  0  0  0  0  0  0  0
    0.0000    3.2000    0.0000 H   0  0  0  0  0  0  0  0  0  0  0  0
   -1.3857    2.4000    0.0000 H   0  0  0  0  0  0  0  0  0  0  0  0
    1.3856    2.4000    0.0000 H   0  0  0  0  0  0  0  0  0  0  0  0
    2.4000    1.3857    0.0000 O   0  0  0  0  0  0  0  0  0  0  0  0
  1  2  1  0  0  0  0
  1  3  1  0  0  0  0
  1  4  1  0  0  0  0
  1  5  1  0  0  0  0
  5  6  1  0  0  0  0
  6  7  1  0  0  0  0
  6  8  1  0  0  0  0
  8  9  1  0  0  0  0
  8 10  1  0  0  0  0
  8 11  1  0  0  0  0
 11 12  1  0  0  0  0
 12 13  1  0  0  0  0
 12 14  1  0  0  0  0
 12 15  1  0  0  0  0
 11 16  2  0  0  0  0
  6 17  1  0  0  0  0
 17 18  1  0  0  0  0
 17 19  1  0  0  0  0
 17 20  1  0  0  0  0
  5 21  2  0  0  0  0
M  END
> <ChemID>
104743

> <source_casrn>
4437-50-7

> <CAS>
NOCAS_871079

> <SMILES>
CC(=O)C(C)CC(C)=O

> <NAME>
3-Methyl-hexane-2,5-dione

> <preferred_name>


> <iupac>


> <MPID>
23635

> <dsstox_substance_id>
DTXSID40871079

> <Canonical_QSARr>
CC(=O)C(C)CC(C)=O

> <InChI_Code_QSARr>
InChI=1S/C7H12O2/c1-5(7(3)9)4-6(2)8/h5H,4H2,1-3H3

> <InChI Key_QSARr>
NLLILAUVOOREKR-UHFFFAOYSA-N

> <Salt_Solvent>
?

> <BP>
196.0

$$$$
104747
  -INDIGO-08031720192D

 78 78  0  0  0  0  0  0  0  0999 V2000
    0.0002    0.0000    0.0000 C   0  0  0  0  0  0  0  0  0  0  0  0
    1.2255   -1.0285    0.0000 H   0  0  0  0  0  0  0  0  0  0  0  0
   -0.8002    1.3856    0.0000 C   0  0  0  0  0  0  0  0  0  0  0  0
    0.7758    1.6635    0.0000 H   0  0  0  0  0  0  0  0  0  0  0  0
   -1.0780    2.9613    0.0000 H   0  0  0  0  0  0  0  0  0  0  0  0
   -2.4000    1.3856    0.0000 C   0  0  0  0  0  0  0  0  0  0  0  0
   -2.1222    2.9613    0.0000 H   0  0  0  0  0  0  0  0  0  0  0  0
   -3.9035    1.9329    0.0000 H   0  0  0  0  0  0  0  0  0  0  0  0
   -3.1999    0.0000    0.0000 C   0  0  0  0  0  0  0  0  0  0  0  0
   -4.4257    1.0285    0.0000 H   0  0  0  0  0  0  0  0  0  0  0  0
   -4.4257   -1.0285    0.0000 H   0  0  0  0  0  0  0  0  0  0  0  0
   -2.4000   -1.3856    0.0000 C   0  0  0  0  0  0  0  0  0  0  0  0
   -3.9035   -1.9329    0.0000 H   0  0  0  0  0  0  0  0  0  0  0  0
   -2.1222   -2.9613    0.0000 H   0  0  0  0  0  0  0  0  0  0  0  0
   -0.8002   -1.3856    0.0000 C   0  0  0  0  0  0  0  0  0  0  0  0
   -1.0780   -2.9613    0.0000 H   0  0  0  0  0  0  0  0  0  0  0  0
    0.7033   -1.9329    0.0000 H   0  0  0  0  0  0  0  0  0  0  0  0
    1.2255    1.0285    0.0000 C   0  0  0  0  0  0  0  0  0  0  0  0
    0.3662    2.3779    0.0000 H   0  0  0  0  0  0  0  0  0  0  0  0
    1.5722    2.5905    0.0000 H   0  0  0  0  0  0  0  0  0  0  0  0
    2.7290    0.4812    0.0000 C   0  0  0  0  0  0  0  0  0  0  0  0
    3.5887   -0.8682    0.0000 H   0  0  0  0  0  0  0  0  0  0  0  0
    2.3828   -1.0808    0.0000 H   0  0  0  0  0  0  0  0  0  0  0  0
    3.9547    1.5097    0.0000 C   0  0  0  0  0  0  0  0  0  0  0  0
    3.0950    2.8591    0.0000 H   0  0  0  0  0  0  0  0  0  0  0  0
    4.3009    3.0717    0.0000 H   0  0  0  0  0  0  0  0  0  0  0  0
    5.4582    0.9624    0.0000 C   0  0  0  0  0  0  0  0  0  0  0  0
    6.3180   -0.3870    0.0000 H   0  0  0  0  0  0  0  0  0  0  0  0
    5.1120   -0.5996    0.0000 H   0  0  0  0  0  0  0  0  0  0  0  0
    6.6840    1.9909    0.0000 C   0  0  0  0  0  0  0  0  0  0  0  0
    5.8242    3.3403    0.0000 H   0  0  0  0  0  0  0  0  0  0  0  0
    7.0302    3.5529    0.0000 H   0  0  0  0  0  0  0  0  0  0  0  0
    8.1875    1.4436    0.0000 C   0  0  0  0  0  0  0  0  0  0  0  0
    9.0472    0.0943    0.0000 H   0  0  0  0  0  0  0  0  0  0  0  0
    7.8413   -0.1184    0.0000 H   0  0  0  0  0  0  0  0  0  0  0  0
    9.4132    2.4721    0.0000 C   0  0  0  0  0  0  0  0  0  0  0  0
    8.5535    3.8215    0.0000 H   0  0  0  0  0  0  0  0  0  0  0  0
    9.7595    4.0342    0.0000 H   0  0  0  0  0  0  0  0  0  0  0  0
   10.9168    1.9249    0.0000 C   0  0  0  0  0  0  0  0  0  0  0  0
   11.7765    0.5755    0.0000 H   0  0  0  0  0  0  0  0  0  0  0  0
   10.5705    0.3628    0.0000 H   0  0  0  0  0  0  0  0  0  0  0  0
   12.1425    2.9533    0.0000 C   0  0  0  0  0  0  0  0  0  0  0  0
   11.2828    4.3027    0.0000 H   0  0  0  0  0  0  0  0  0  0  0  0
   12.4887    4.5155    0.0000 H   0  0  0  0  0  0  0  0  0  0  0  0
   13.6460    2.4061    0.0000 C   0  0  0  0  0  0  0  0  0  0  0  0
   14.5057    1.0567    0.0000 H   0  0  0  0  0  0  0  0  0  0  0  0
   13.2998    0.8441    0.0000 H   0  0  0  0  0  0  0  0  0  0  0  0
   14.8717    3.4346    0.0000 C   0  0  0  0  0  0  0  0  0  0  0  0
   14.0120    4.7841    0.0000 H   0  0  0  0  0  0  0  0  0  0  0  0
   15.2180    4.9967    0.0000 H   0  0  0  0  0  0  0  0  0  0  0  0
   16.3753    2.8874    0.0000 C   0  0  0  0  0  0  0  0  0  0  0  0
   17.2350    1.5379    0.0000 H   0  0  0  0  0  0  0  0  0  0  0  0
   16.0285    1.3253    0.0000 H   0  0  0  0  0  0  0  0  0  0  0  0
   17.6010    3.9158    0.0000 C   0  0  0  0  0  0  0  0  0  0  0  0
   16.7413    5.2653    0.0000 H   0  0  0  0  0  0  0  0  0  0  0  0
   17.9472    5.4780    0.0000 H   0  0  0  0  0  0  0  0  0  0  0  0
   19.1040    3.3687    0.0000 C   0  0  0  0  0  0  0  0  0  0  0  0
   19.9637    2.0191    0.0000 H   0  0  0  0  0  0  0  0  0  0  0  0
   18.7578    1.8065    0.0000 H   0  0  0  0  0  0  0  0  0  0  0  0
   20.3297    4.3971    0.0000 C   0  0  0  0  0  0  0  0  0  0  0  0
   19.4700    5.7465    0.0000 H   0  0  0  0  0  0  0  0  0  0  0  0
   20.6765    5.9592    0.0000 H   0  0  0  0  0  0  0  0  0  0  0  0
   21.8333    3.8499    0.0000 C   0  0  0  0  0  0  0  0  0  0  0  0
   22.6930    2.5005    0.0000 H   0  0  0  0  0  0  0  0  0  0  0  0
   21.4870    2.2877    0.0000 H   0  0  0  0  0  0  0  0  0  0  0  0
   23.0590    4.8784    0.0000 C   0  0  0  0  0  0  0  0  0  0  0  0
   22.1993    6.2277    0.0000 H   0  0  0  0  0  0  0  0  0  0  0  0
   23.4052    6.4404    0.0000 H   0  0  0  0  0  0  0  0  0  0  0  0
   24.5625    4.3311    0.0000 C   0  0  0  0  0  0  0  0  0  0  0  0
   25.4223    2.9817    0.0000 H   0  0  0  0  0  0  0  0  0  0  0  0
   24.2163    2.7691    0.0000 H   0  0  0  0  0  0  0  0  0  0  0  0
   25.7883    5.3596    0.0000 C   0  0  0  0  0  0  0  0  0  0  0  0
   24.9285    6.7090    0.0000 H   0  0  0  0  0  0  0  0  0  0  0  0
   26.1345    6.9216    0.0000 H   0  0  0  0  0  0  0  0  0  0  0  0
   27.2918    4.8123    0.0000 C   0  0  0  0  0  0  0  0  0  0  0  0
   28.7953    4.2650    0.0000 H   0  0  0  0  0  0  0  0  0  0  0  0
   28.5175    5.8408    0.0000 H   0  0  0  0  0  0  0  0  0  0  0  0
   27.5696    3.2366    0.0000 H   0  0  0  0  0  0  0  0  0  0  0  0
  1  2  1  0  0  0  0
  1  3  1  0  0  0  0
  3  4  1  0  0  0  0
  3  5  1  0  0  0  0
  3  6  1  0  0  0  0
  6  7  1  0  0  0  0
  6  8  1  0  0  0  0
  6  9  1  0  0  0  0
  9 10  1  0  0  0  0
  9 11  1  0  0  0  0
  9 12  1  0  0  0  0
 12 13  1  0  0  0  0
 12 14  1  0  0  0  0
 12 15  1  0  0  0  0
 15  1  1  0  0  0  0
 15 16  1  0  0  0  0
 15 17  1  0  0  0  0
  1 18  1  0  0  0  0
 18 19  1  0  0  0  0
 18 20  1  0  0  0  0
 18 21  1  0  0  0  0
 21 22  1  0  0  0  0
 21 23  1  0  0  0  0
 21 24  1  0  0  0  0
 24 25  1  0  0  0  0
 24 26  1  0  0  0  0
 24 27  1  0  0  0  0
 27 28  1  0  0  0  0
 27 29  1  0  0  0  0
 27 30  1  0  0  0  0
 30 31  1  0  0  0  0
 30 32  1  0  0  0  0
 30 33  1  0  0  0  0
 33 34  1  0  0  0  0
 33 35  1  0  0  0  0
 33 36  1  0  0  0  0
 36 37  1  0  0  0  0
 36 38  1  0  0  0  0
 36 39  1  0  0  0  0
 39 40  1  0  0  0  0
 39 41  1  0  0  0  0
 39 42  1  0  0  0  0
 42 43  1  0  0  0  0
 42 44  1  0  0  0  0
 42 45  1  0  0  0  0
 45 46  1  0  0  0  0
 45 47  1  0  0  0  0
 45 48  1  0  0  0  0
 48 49  1  0  0  0  0
 48 50  1  0  0  0  0
 48 51  1  0  0  0  0
 51 52  1  0  0  0  0
 51 53  1  0  0  0  0
 51 54  1  0  0  0  0
 54 55  1  0  0  0  0
 54 56  1  0  0  0  0
 54 57  1  0  0  0  0
 57 58  1  0  0  0  0
 57 59  1  0  0  0  0
 57 60  1  0  0  0  0
 60 61  1  0  0  0  0
 60 62  1  0  0  0  0
 60 63  1  0  0  0  0
 63 64  1  0  0  0  0
 63 65  1  0  0  0  0
 63 66  1  0  0  0  0
 66 67  1  0  0  0  0
 66 68  1  0  0  0  0
 66 69  1  0  0  0  0
 69 70  1  0  0  0  0
 69 71  1  0  0  0  0
 69 72  1  0  0  0  0
 72 73  1  0  0  0  0
 72 74  1  0  0  0  0
 72 75  1  0  0  0  0
 75 76  1  0  0  0  0
 75 77  1  0  0  0  0
 75 78  1  0  0  0  0
M  END
> <ChemID>
104747

> <source_casrn>
4443-55-4

> <CAS>
4443-55-4

> <SMILES>
CCCCCCCCCCCCCCCCCCCCC1CCCCC1

> <NAME>
EICOSYLCYCLOHEXANE

> <preferred_name>
Cyclohexane, eicosyl-

> <iupac>
icosylcyclohexane

> <MPID>
23639

> <dsstox_substance_id>
DTXSID1075064

> <Canonical_QSARr>
CCCCCCCCCCCCCCCCCCCCC1CCCCC1

> <InChI_Code_QSARr>
InChI=1S/C26H52/c1-2-3-4-5-6-7-8-9-10-11-12-13-14-15-16-17-18-20-23-26-24-21-19-22-25-26/h26H,2-25H2,1H3

> <InChI Key_QSARr>
PSPNTGGVAYLSJO-UHFFFAOYSA-N

> <Salt_Solvent>
?

> <BP>
430.0

$$$$
104751
  -INDIGO-08031720192D

 18 18  0  0  0  0  0  0  0  0999 V2000
    0.0000    2.7712    0.0000 O   0  0  0  0  0  0  0  0  0  0  0  0
    1.6000    2.7712    0.0000 C   0  0  0  0  0  0  0  0  0  0  0  0
    2.4001    4.1569    0.0000 H   0  0  0  0  0  0  0  0  0  0  0  0
    2.3999    1.3857    0.0000 C   0  0  0  0  0  0  0  0  0  0  0  0
    4.0000    1.3857    0.0000 H   0  0  0  0  0  0  0  0  0  0  0  0
    1.6000   -0.0000    0.0000 C   0  0  0  0  0  0  0  0  0  0  0  0
    3.1036   -0.5473    0.0000 H   0  0  0  0  0  0  0  0  0  0  0  0
    1.3221   -1.5757    0.0000 H   0  0  0  0  0  0  0  0  0  0  0  0
    0.0000   -0.0000    0.0000 C   0  0  0  0  0  0  0  0  0  0  0  0
    0.2779   -1.5757    0.0000 H   0  0  0  0  0  0  0  0  0  0  0  0
   -1.5036   -0.5473    0.0000 H   0  0  0  0  0  0  0  0  0  0  0  0
   -0.8001    1.3857    0.0000 C   0  0  0  0  0  0  0  0  0  0  0  0
   -2.0257    0.3572    0.0000 H   0  0  0  0  0  0  0  0  0  0  0  0
   -2.0257    2.4141    0.0000 O   0  0  0  0  0  0  0  0  0  0  0  0
   -3.5292    1.8669    0.0000 C   0  0  0  0  0  0  0  0  0  0  0  0
   -4.7548    2.8954    0.0000 H   0  0  0  0  0  0  0  0  0  0  0  0
   -5.0327    1.3196    0.0000 H   0  0  0  0  0  0  0  0  0  0  0  0
   -3.2514    3.4425    0.0000 H   0  0  0  0  0  0  0  0  0  0  0  0
  1  2  1  0  0  0  0
  2  3  1  0  0  0  0
  2  4  2  0  0  0  0
  4  5  1  0  0  0  0
  4  6  1  0  0  0  0
  6  7  1  0  0  0  0
  6  8  1  0  0  0  0
  6  9  1  0  0  0  0
  9 10  1  0  0  0  0
  9 11  1  0  0  0  0
  9 12  1  0  0  0  0
 12  1  1  0  0  0  0
 12 13  1  0  0  0  0
 12 14  1  0  0  0  0
 14 15  1  0  0  0  0
 15 16  1  0  0  0  0
 15 17  1  0  0  0  0
 15 18  1  0  0  0  0
M  END
> <ChemID>
104751

> <source_casrn>
4454-05-1

> <CAS>
4454-05-1

> <SMILES>
COC1CCC=CO1

> <NAME>
2-Methoxy-3,4-dihydro-2H-pyran

> <preferred_name>
2-Methoxy-3,4-dihydro-2H-pyran

> <iupac>
2-methoxy-3,4-dihydro-2H-pyran

> <MPID>
23643

> <dsstox_substance_id>
DTXSID9027570

> <Canonical_QSARr>
COC1CCC=CO1

> <InChI_Code_QSARr>
InChI=1S/C6H10O2/c1-7-6-4-2-3-5-8-6/h3,5-6H,2,4H2,1H3

> <InChI Key_QSARr>
XCYWUZHUTJDTGS-UHFFFAOYSA-N

> <Salt_Solvent>
?

> <BP>
117.6

$$$$
104756
  -INDIGO-08031720192D

 30 30  0  0  0  0  0  0  0  0999 V2000
    1.6635    2.3756    0.0000 C   0  0  0  0  0  0  0  0  0  0  0  0
    3.0492    3.1757    0.0000 H   0  0  0  0  0  0  0  0  0  0  0  0
    1.6635    3.9757    0.0000 H   0  0  0  0  0  0  0  0  0  0  0  0
    3.0492    1.5757    0.0000 H   0  0  0  0  0  0  0  0  0  0  0  0
    0.2778    1.5757    0.0000 C   0  0  0  0  0  0  0  0  0  0  0  0
   -1.2482    2.0568    0.0000 H   0  0  0  0  0  0  0  0  0  0  0  0
   -0.4610    2.9950    0.0000 H   0  0  0  0  0  0  0  0  0  0  0  0
   -0.0001   -0.0000    0.0000 C   0  0  0  0  0  0  0  0  0  0  0  0
   -0.2779   -1.5757    0.0000 H   0  0  0  0  0  0  0  0  0  0  0  0
    1.5757   -0.2778    0.0000 C   0  0  0  0  0  0  0  0  0  0  0  0
    2.0569    1.2481    0.0000 H   0  0  0  0  0  0  0  0  0  0  0  0
    2.9950    0.4610    0.0000 H   0  0  0  0  0  0  0  0  0  0  0  0
    2.1228   -1.7814    0.0000 C   0  0  0  0  0  0  0  0  0  0  0  0
    1.6418   -3.3073    0.0000 H   0  0  0  0  0  0  0  0  0  0  0  0
    0.7037   -2.5202    0.0000 H   0  0  0  0  0  0  0  0  0  0  0  0
    3.6986   -2.0592    0.0000 C   0  0  0  0  0  0  0  0  0  0  0  0
    5.2743   -2.3371    0.0000 H   0  0  0  0  0  0  0  0  0  0  0  0
    4.2459   -3.5627    0.0000 H   0  0  0  0  0  0  0  0  0  0  0  0
    4.7271   -0.8335    0.0000 H   0  0  0  0  0  0  0  0  0  0  0  0
   -1.5756    0.2779    0.0000 C   0  0  0  0  0  0  0  0  0  0  0  0
   -2.3757    1.6635    0.0000 C   0  0  0  0  0  0  0  0  0  0  0  0
   -1.5756    3.0491    0.0000 H   0  0  0  0  0  0  0  0  0  0  0  0
   -3.9757    1.6635    0.0000 C   0  0  0  0  0  0  0  0  0  0  0  0
   -4.7756    3.0491    0.0000 H   0  0  0  0  0  0  0  0  0  0  0  0
   -4.7756    0.2779    0.0000 C   0  0  0  0  0  0  0  0  0  0  0  0
   -6.3757    0.2779    0.0000 H   0  0  0  0  0  0  0  0  0  0  0  0
   -3.9757   -1.1078    0.0000 C   0  0  0  0  0  0  0  0  0  0  0  0
   -4.7756   -2.4934    0.0000 H   0  0  0  0  0  0  0  0  0  0  0  0
   -2.3757   -1.1078    0.0000 C   0  0  0  0  0  0  0  0  0  0  0  0
   -1.5756   -2.4934    0.0000 H   0  0  0  0  0  0  0  0  0  0  0  0
  1  2  1  0  0  0  0
  1  3  1  0  0  0  0
  1  4  1  0  0  0  0
  1  5  1  0  0  0  0
  5  6  1  0  0  0  0
  5  7  1  0  0  0  0
  5  8  1  0  0  0  0
  8  9  1  0  0  0  0
  8 10  1  0  0  0  0
 10 11  1  0  0  0  0
 10 12  1  0  0  0  0
 10 13  1  0  0  0  0
 13 14  1  0  0  0  0
 13 15  1  0  0  0  0
 13 16  1  0  0  0  0
 16 17  1  0  0  0  0
 16 18  1  0  0  0  0
 16 19  1  0  0  0  0
  8 20  1  0  0  0  0
 20 21  1  0  0  0  0
 21 22  1  0  0  0  0
 21 23  2  0  0  0  0
 23 24  1  0  0  0  0
 23 25  1  0  0  0  0
 25 26  1  0  0  0  0
 25 27  2  0  0  0  0
 27 28  1  0  0  0  0
 27 29  1  0  0  0  0
 29 20  2  0  0  0  0
 29 30  1  0  0  0  0
M  END
> <ChemID>
104756

> <source_casrn>
4468-42-2

> <CAS>
4468-42-2

> <SMILES>
CCC(CCC)c1ccccc1

> <NAME>
BENZENE, (1-ETHYLBUTYL)-

> <preferred_name>
3-Phenylhexane

> <iupac>
hexan-3-ylbenzene

> <MPID>
23648

> <dsstox_substance_id>
DTXSID4041492

> <Canonical_QSARr>
CCC(CCC)c1ccccc1

> <InChI_Code_QSARr>
InChI=1S/C12H18/c1-3-8-11(4-2)12-9-6-5-7-10-12/h5-7,9-11H,3-4,8H2,1-2H3

> <InChI Key_QSARr>
SLVCCWGFGQVDMN-UHFFFAOYSA-N

> <Salt_Solvent>
?

> <BP>
209.0

$$$$
104760
  -INDIGO-08031720192D

  9  8  0  0  0  0  0  0  0  0999 V2000
   -1.3856   -0.8000    0.0000 Br  0  0  0  0  0  0  0  0  0  0  0  0
    0.0000    0.0000    0.0000 C   0  0  0  0  0  0  0  0  0  0  0  0
   -1.3856    0.8000    0.0000 H   0  0  0  0  0  0  0  0  0  0  0  0
    0.0000    1.6000    0.0000 H   0  0  0  0  0  0  0  0  0  0  0  0
    1.3856   -0.8000    0.0000 O   0  0  0  0  0  0  0  0  0  0  0  0
    2.7713    0.0000    0.0000 C   0  0  0  0  0  0  0  0  0  0  0  0
    4.1569    0.8000    0.0000 H   0  0  0  0  0  0  0  0  0  0  0  0
    4.1569   -0.8000    0.0000 H   0  0  0  0  0  0  0  0  0  0  0  0
    2.7713    1.6000    0.0000 Br  0  0  0  0  0  0  0  0  0  0  0  0
  1  2  1  0  0  0  0
  2  3  1  0  0  0  0
  2  4  1  0  0  0  0
  2  5  1  0  0  0  0
  5  6  1  0  0  0  0
  6  7  1  0  0  0  0
  6  8  1  0  0  0  0
  6  9  1  0  0  0  0
M  END
> <ChemID>
104760

> <source_casrn>
4497-29-4

> <CAS>
4497-29-4

> <SMILES>
BrCOCBr

> <NAME>
Bromo-bromomethoxy-methane

> <preferred_name>
PUBCHEM_13349653

> <iupac>
C2H4Br2O

> <MPID>
23652

> <dsstox_substance_id>
DTXSID40537840

> <Canonical_QSARr>
BrCOCBr

> <InChI_Code_QSARr>
InChI=1S/C2H4Br2O/c3-1-5-2-4/h1-2H2

> <InChI Key_QSARr>
CVDGHGWEHQIJTE-UHFFFAOYSA-N

> <Salt_Solvent>
?

> <BP>
154.5

$$$$
104765
  -INDIGO-08031720192D

 23 22  0  0  0  0  0  0  0  0999 V2000
    4.1569    2.4000    0.0000 Br  0  0  0  0  0  0  0  0  0  0  0  0
    4.1569    0.8000    0.0000 C   0  0  0  0  0  0  0  0  0  0  0  0
    5.5426    1.6000    0.0000 H   0  0  0  0  0  0  0  0  0  0  0  0
    5.5426    0.0000    0.0000 H   0  0  0  0  0  0  0  0  0  0  0  0
    2.7712    0.0000    0.0000 C   0  0  0  0  0  0  0  0  0  0  0  0
    3.3836   -1.4782    0.0000 H   0  0  0  0  0  0  0  0  0  0  0  0
    2.1589   -1.4782    0.0000 H   0  0  0  0  0  0  0  0  0  0  0  0
    1.3856    0.8000    0.0000 C   0  0  0  0  0  0  0  0  0  0  0  0
    0.7734    2.2782    0.0000 H   0  0  0  0  0  0  0  0  0  0  0  0
    1.9979    2.2782    0.0000 H   0  0  0  0  0  0  0  0  0  0  0  0
    0.0001    0.0000    0.0000 C   0  0  0  0  0  0  0  0  0  0  0  0
    0.6122   -1.4782    0.0000 H   0  0  0  0  0  0  0  0  0  0  0  0
   -0.6122   -1.4782    0.0000 H   0  0  0  0  0  0  0  0  0  0  0  0
   -1.3856    0.8000    0.0000 C   0  0  0  0  0  0  0  0  0  0  0  0
   -1.9979    2.2782    0.0000 H   0  0  0  0  0  0  0  0  0  0  0  0
   -0.7734    2.2782    0.0000 H   0  0  0  0  0  0  0  0  0  0  0  0
   -2.7712    0.0000    0.0000 C   0  0  0  0  0  0  0  0  0  0  0  0
   -2.1589   -1.4782    0.0000 H   0  0  0  0  0  0  0  0  0  0  0  0
   -3.3836   -1.4782    0.0000 H   0  0  0  0  0  0  0  0  0  0  0  0
   -4.1569    0.8000    0.0000 C   0  0  0  0  0  0  0  0  0  0  0  0
   -5.5426    1.6000    0.0000 H   0  0  0  0  0  0  0  0  0  0  0  0
   -5.5426    0.0000    0.0000 H   0  0  0  0  0  0  0  0  0  0  0  0
   -4.1569    2.4000    0.0000 Br  0  0  0  0  0  0  0  0  0  0  0  0
  1  2  1  0  0  0  0
  2  3  1  0  0  0  0
  2  4  1  0  0  0  0
  2  5  1  0  0  0  0
  5  6  1  0  0  0  0
  5  7  1  0  0  0  0
  5  8  1  0  0  0  0
  8  9  1  0  0  0  0
  8 10  1  0  0  0  0
  8 11  1  0  0  0  0
 11 12  1  0  0  0  0
 11 13  1  0  0  0  0
 11 14  1  0  0  0  0
 14 15  1  0  0  0  0
 14 16  1  0  0  0  0
 14 17  1  0  0  0  0
 17 18  1  0  0  0  0
 17 19  1  0  0  0  0
 17 20  1  0  0  0  0
 20 21  1  0  0  0  0
 20 22  1  0  0  0  0
 20 23  1  0  0  0  0
M  END
> <ChemID>
104765

> <source_casrn>
4549-31-9

> <CAS>
4549-31-9

> <SMILES>
BrCCCCCCCBr

> <NAME>
Heptane, 1,7-dibromo-

> <preferred_name>
Heptane, 1,7-dibromo-

> <iupac>
1,7-Dibromoheptane

> <MPID>
23656

> <dsstox_substance_id>
DTXSID6063519

> <Canonical_QSARr>
BrCCCCCCCBr

> <InChI_Code_QSARr>
InChI=1S/C7H14Br2/c8-6-4-2-1-3-5-7-9/h1-7H2

> <InChI Key_QSARr>
LVWSZGCVEZRFBT-UHFFFAOYSA-N

> <Salt_Solvent>
?

> <BP>
263.0

$$$$
104769
  -INDIGO-08031720192D

 27 26  0  0  0  0  0  0  0  0999 V2000
    0.0001    0.0000    0.0000 C   0  0  0  0  0  0  0  0  0  0  0  0
    0.6122   -1.4782    0.0000 H   0  0  0  0  0  0  0  0  0  0  0  0
   -0.6123   -1.4782    0.0000 H   0  0  0  0  0  0  0  0  0  0  0  0
    1.3856    0.8000    0.0000 C   0  0  0  0  0  0  0  0  0  0  0  0
    0.7734    2.2782    0.0000 H   0  0  0  0  0  0  0  0  0  0  0  0
    1.9979    2.2782    0.0000 H   0  0  0  0  0  0  0  0  0  0  0  0
    2.7713    0.0000    0.0000 C   0  0  0  0  0  0  0  0  0  0  0  0
    3.3836   -1.4782    0.0000 H   0  0  0  0  0  0  0  0  0  0  0  0
    2.1589   -1.4782    0.0000 H   0  0  0  0  0  0  0  0  0  0  0  0
    4.1570    0.8000    0.0000 C   0  0  0  0  0  0  0  0  0  0  0  0
    5.5425    0.0000    0.0000 C   0  0  0  0  0  0  0  0  0  0  0  0
    6.9282   -0.8000    0.0000 H   0  0  0  0  0  0  0  0  0  0  0  0
    6.9282    0.8000    0.0000 H   0  0  0  0  0  0  0  0  0  0  0  0
    5.5425   -1.6000    0.0000 H   0  0  0  0  0  0  0  0  0  0  0  0
    4.1570    2.4000    0.0000 C   0  0  0  0  0  0  0  0  0  0  0  0
    5.5425    3.2000    0.0000 H   0  0  0  0  0  0  0  0  0  0  0  0
    2.7713    3.2000    0.0000 H   0  0  0  0  0  0  0  0  0  0  0  0
   -1.3856    0.8000    0.0000 C   0  0  0  0  0  0  0  0  0  0  0  0
   -1.9980    2.2782    0.0000 H   0  0  0  0  0  0  0  0  0  0  0  0
   -0.7733    2.2782    0.0000 H   0  0  0  0  0  0  0  0  0  0  0  0
   -2.7713    0.0000    0.0000 C   0  0  0  0  0  0  0  0  0  0  0  0
   -2.1590   -1.4782    0.0000 H   0  0  0  0  0  0  0  0  0  0  0  0
   -3.3835   -1.4782    0.0000 H   0  0  0  0  0  0  0  0  0  0  0  0
   -4.1569    0.8000    0.0000 C   0  0  0  0  0  0  0  0  0  0  0  0
   -5.5426    1.6000    0.0000 H   0  0  0  0  0  0  0  0  0  0  0  0
   -5.5426    0.0000    0.0000 H   0  0  0  0  0  0  0  0  0  0  0  0
   -4.1569    2.4000    0.0000 H   0  0  0  0  0  0  0  0  0  0  0  0
  1  2  1  0  0  0  0
  1  3  1  0  0  0  0
  1  4  1  0  0  0  0
  4  5  1  0  0  0  0
  4  6  1  0  0  0  0
  4  7  1  0  0  0  0
  7  8  1  0  0  0  0
  7  9  1  0  0  0  0
  7 10  1  0  0  0  0
 10 11  1  0  0  0  0
 11 12  1  0  0  0  0
 11 13  1  0  0  0  0
 11 14  1  0  0  0  0
 10 15  2  0  0  0  0
 15 16  1  0  0  0  0
 15 17  1  0  0  0  0
  1 18  1  0  0  0  0
 18 19  1  0  0  0  0
 18 20  1  0  0  0  0
 18 21  1  0  0  0  0
 21 22  1  0  0  0  0
 21 23  1  0  0  0  0
 21 24  1  0  0  0  0
 24 25  1  0  0  0  0
 24 26  1  0  0  0  0
 24 27  1  0  0  0  0
M  END
> <ChemID>
104769

> <source_casrn>
4588-18-5

> <CAS>
4588-18-5

> <SMILES>
CCCCCCC(C)=C

> <NAME>
1-OCTENE, 2-METHYL-

> <preferred_name>
2-Methyl-1-octene

> <iupac>
2-methyloct-1-ene

> <MPID>
23660

> <dsstox_substance_id>
DTXSID60196635

> <Canonical_QSARr>
CCCCCCC(C)=C

> <InChI_Code_QSARr>
InChI=1S/C9H18/c1-4-5-6-7-8-9(2)3/h2,4-8H2,1,3H3

> <InChI Key_QSARr>
FBEDQPGLIKZGIN-UHFFFAOYSA-N

> <Salt_Solvent>
?

> <BP>
144.8

$$$$
104773
  -INDIGO-08031720192D

 23 22  0  0  0  0  0  0  0  0999 V2000
    4.1570   -0.8000    0.0000 C   0  0  0  0  0  0  0  0  0  0  0  0
    4.7693   -2.2782    0.0000 H   0  0  0  0  0  0  0  0  0  0  0  0
    3.5447   -2.2782    0.0000 H   0  0  0  0  0  0  0  0  0  0  0  0
    2.7713   -0.0000    0.0000 C   0  0  0  0  0  0  0  0  0  0  0  0
    2.6164    0.8782    0.0000 H   0  0  0  0  0  0  0  0  0  0  0  0
    3.3836    1.4782    0.0000 H   0  0  0  0  0  0  0  0  0  0  0  0
    1.3856   -0.8000    0.0000 N   0  0  0  0  0  0  0  0  0  0  0  0
    1.3856   -2.4000    0.0000 H   0  0  0  0  0  0  0  0  0  0  0  0
   -0.0000   -0.0000    0.0000 C   0  0  0  0  0  0  0  0  0  0  0  0
   -1.3857    0.8000    0.0000 C   0  0  0  0  0  0  0  0  0  0  0  0
   -2.7713    1.6000    0.0000 H   0  0  0  0  0  0  0  0  0  0  0  0
   -2.7713   -0.0000    0.0000 H   0  0  0  0  0  0  0  0  0  0  0  0
   -1.3857    2.4000    0.0000 H   0  0  0  0  0  0  0  0  0  0  0  0
    1.0284    1.2257    0.0000 C   0  0  0  0  0  0  0  0  0  0  0  0
    2.0569    2.4514    0.0000 H   0  0  0  0  0  0  0  0  0  0  0  0
    1.9116    1.3494    0.0000 H   0  0  0  0  0  0  0  0  0  0  0  0
    0.4813    2.7292    0.0000 H   0  0  0  0  0  0  0  0  0  0  0  0
   -0.8000   -1.3857    0.0000 C   0  0  0  0  0  0  0  0  0  0  0  0
   -1.6000   -2.7713    0.0000 H   0  0  0  0  0  0  0  0  0  0  0  0
   -0.0000   -2.7713    0.0000 H   0  0  0  0  0  0  0  0  0  0  0  0
   -2.3999   -1.3857    0.0000 H   0  0  0  0  0  0  0  0  0  0  0  0
    5.5426   -0.0000    0.0000 O   0  0  0  0  0  0  0  0  0  0  0  0
    6.9282   -0.8000    0.0000 H   0  0  0  0  0  0  0  0  0  0  0  0
  1  2  1  0  0  0  0
  1  3  1  0  0  0  0
  1  4  1  0  0  0  0
  4  5  1  0  0  0  0
  4  6  1  0  0  0  0
  4  7  1  0  0  0  0
  7  8  1  0  0  0  0
  7  9  1  0  0  0  0
  9 10  1  0  0  0  0
 10 11  1  0  0  0  0
 10 12  1  0  0  0  0
 10 13  1  0  0  0  0
  9 14  1  0  0  0  0
 14 15  1  0  0  0  0
 14 16  1  0  0  0  0
 14 17  1  0  0  0  0
  9 18  1  0  0  0  0
 18 19  1  0  0  0  0
 18 20  1  0  0  0  0
 18 21  1  0  0  0  0
  1 22  1  0  0  0  0
 22 23  1  0  0  0  0
M  END
> <ChemID>
104773

> <source_casrn>
4620-70-6

> <CAS>
4620-70-6

> <SMILES>
CC(C)(C)NCCO

> <NAME>
ETHANOL, 2- (1,1-DIMETHYLETHYL)AMINO -

> <preferred_name>
2-(tert-Butylamino)ethanol

> <iupac>
2-(tert-butylamino)ethanol

> <MPID>
23664

> <dsstox_substance_id>
DTXSID1044431

> <Canonical_QSARr>
CC(C)(C)NCCO

> <InChI_Code_QSARr>
InChI=1S/C6H15NO/c1-6(2,3)7-4-5-8/h7-8H,4-5H2,1-3H3

> <InChI Key_QSARr>
IUXYVKZUDNLISR-UHFFFAOYSA-N

> <Salt_Solvent>
?

> <BP>
176.5

$$$$
104778
  -INDIGO-08031720192D

 35 36  0  0  0  0  0  0  0  0999 V2000
   -1.5758   -0.2778    0.0000 O   0  0  0  0  0  0  0  0  0  0  0  0
   -2.8014    0.7506    0.0000 C   0  0  0  0  0  0  0  0  0  0  0  0
   -1.5758    1.7791    0.0000 H   0  0  0  0  0  0  0  0  0  0  0  0
   -3.6014    2.1363    0.0000 C   0  0  0  0  0  0  0  0  0  0  0  0
   -2.0978    2.6834    0.0000 H   0  0  0  0  0  0  0  0  0  0  0  0
   -3.8793    3.7120    0.0000 H   0  0  0  0  0  0  0  0  0  0  0  0
   -5.2013    2.1363    0.0000 C   0  0  0  0  0  0  0  0  0  0  0  0
   -4.9235    3.7120    0.0000 H   0  0  0  0  0  0  0  0  0  0  0  0
   -6.7048    2.6834    0.0000 H   0  0  0  0  0  0  0  0  0  0  0  0
   -6.0014    0.7506    0.0000 C   0  0  0  0  0  0  0  0  0  0  0  0
   -7.2270    1.7791    0.0000 H   0  0  0  0  0  0  0  0  0  0  0  0
   -7.2270   -0.2778    0.0000 H   0  0  0  0  0  0  0  0  0  0  0  0
   -5.2013   -0.6350    0.0000 C   0  0  0  0  0  0  0  0  0  0  0  0
   -6.7048   -1.1823    0.0000 H   0  0  0  0  0  0  0  0  0  0  0  0
   -4.9235   -2.2107    0.0000 H   0  0  0  0  0  0  0  0  0  0  0  0
   -3.6014   -0.6350    0.0000 C   0  0  0  0  0  0  0  0  0  0  0  0
   -3.8793   -2.2107    0.0000 H   0  0  0  0  0  0  0  0  0  0  0  0
   -2.0978   -1.1823    0.0000 H   0  0  0  0  0  0  0  0  0  0  0  0
   -0.0001   -0.0000    0.0000 C   0  0  0  0  0  0  0  0  0  0  0  0
   -0.5472    1.5036    0.0000 H   0  0  0  0  0  0  0  0  0  0  0  0
   -0.0001   -1.6000    0.0000 C   0  0  0  0  0  0  0  0  0  0  0  0
   -1.5035   -2.1473    0.0000 H   0  0  0  0  0  0  0  0  0  0  0  0
   -0.5472   -3.1035    0.0000 H   0  0  0  0  0  0  0  0  0  0  0  0
    1.3856   -2.4000    0.0000 C   0  0  0  0  0  0  0  0  0  0  0  0
    0.3572   -3.6257    0.0000 H   0  0  0  0  0  0  0  0  0  0  0  0
    2.4142   -3.6257    0.0000 H   0  0  0  0  0  0  0  0  0  0  0  0
    2.7713   -1.6000    0.0000 C   0  0  0  0  0  0  0  0  0  0  0  0
    3.3186   -3.1035    0.0000 H   0  0  0  0  0  0  0  0  0  0  0  0
    4.3470   -1.3222    0.0000 H   0  0  0  0  0  0  0  0  0  0  0  0
    2.7713   -0.0000    0.0000 C   0  0  0  0  0  0  0  0  0  0  0  0
    4.3470   -0.2778    0.0000 H   0  0  0  0  0  0  0  0  0  0  0  0
    3.3186    1.5036    0.0000 H   0  0  0  0  0  0  0  0  0  0  0  0
    1.3856    0.8000    0.0000 C   0  0  0  0  0  0  0  0  0  0  0  0
    2.4142    2.0257    0.0000 H   0  0  0  0  0  0  0  0  0  0  0  0
    0.3572    2.0257    0.0000 H   0  0  0  0  0  0  0  0  0  0  0  0
  1  2  1  0  0  0  0
  2  3  1  0  0  0  0
  2  4  1  0  0  0  0
  4  5  1  0  0  0  0
  4  6  1  0  0  0  0
  4  7  1  0  0  0  0
  7  8  1  0  0  0  0
  7  9  1  0  0  0  0
  7 10  1  0  0  0  0
 10 11  1  0  0  0  0
 10 12  1  0  0  0  0
 10 13  1  0  0  0  0
 13 14  1  0  0  0  0
 13 15  1  0  0  0  0
 13 16  1  0  0  0  0
 16  2  1  0  0  0  0
 16 17  1  0  0  0  0
 16 18  1  0  0  0  0
  1 19  1  0  0  0  0
 19 20  1  0  0  0  0
 19 21  1  0  0  0  0
 21 22  1  0  0  0  0
 21 23  1  0  0  0  0
 21 24  1  0  0  0  0
 24 25  1  0  0  0  0
 24 26  1  0  0  0  0
 24 27  1  0  0  0  0
 27 28  1  0  0  0  0
 27 29  1  0  0  0  0
 27 30  1  0  0  0  0
 30 31  1  0  0  0  0
 30 32  1  0  0  0  0
 30 33  1  0  0  0  0
 33 19  1  0  0  0  0
 33 34  1  0  0  0  0
 33 35  1  0  0  0  0
M  END
> <ChemID>
104778

> <source_casrn>
4645-15-2

> <CAS>
4645-15-2

> <SMILES>
C1CCCCC1OC1CCCCC1

> <NAME>
CYCLOHEXANE, 1,1'-OXYBIS-

> <preferred_name>
1,1'-Oxybis(cyclohexane)

> <iupac>
cyclohexyloxycyclohexane

> <MPID>
23669

> <dsstox_substance_id>
DTXSID70196843

> <Canonical_QSARr>
C1CCCCC1OC1CCCCC1

> <InChI_Code_QSARr>
InChI=1S/C12H22O/c1-3-7-11(8-4-1)13-12-9-5-2-6-10-12/h11-12H,1-10H2

> <InChI Key_QSARr>
OCDXZFSOHJRGIL-UHFFFAOYSA-N

> <Salt_Solvent>
?

> <BP>
242.5

$$$$
104782
  -INDIGO-08031720192D

 22 22  0  0  0  0  0  0  0  0999 V2000
    4.8000    0.0000    0.0000 C   0  0  0  0  0  0  0  0  0  0  0  0
    5.6000    1.3856    0.0000 O   0  0  0  0  0  0  0  0  0  0  0  0
    3.2000    0.0000    0.0000 C   0  0  0  0  0  0  0  0  0  0  0  0
    2.4000    1.3856    0.0000 C   0  0  0  0  0  0  0  0  0  0  0  0
    3.2000    2.7713    0.0000 O   0  0  0  0  0  0  0  0  0  0  0  0
    2.4000    4.1569    0.0000 H   0  0  0  0  0  0  0  0  0  0  0  0
    0.8000    1.3856    0.0000 C   0  0  0  0  0  0  0  0  0  0  0  0
    0.0000    2.7713    0.0000 H   0  0  0  0  0  0  0  0  0  0  0  0
    0.0000    0.0000    0.0000 C   0  0  0  0  0  0  0  0  0  0  0  0
   -1.6000    0.0000    0.0000 C   0  0  0  0  0  0  0  0  0  0  0  0
   -3.2000    0.0000    0.0000 H   0  0  0  0  0  0  0  0  0  0  0  0
   -2.4000   -1.3856    0.0000 H   0  0  0  0  0  0  0  0  0  0  0  0
   -2.4000    1.3856    0.0000 H   0  0  0  0  0  0  0  0  0  0  0  0
    0.8000   -1.3856    0.0000 C   0  0  0  0  0  0  0  0  0  0  0  0
    0.0000   -2.7713    0.0000 H   0  0  0  0  0  0  0  0  0  0  0  0
    2.4000   -1.3856    0.0000 C   0  0  0  0  0  0  0  0  0  0  0  0
    3.2000   -2.7713    0.0000 H   0  0  0  0  0  0  0  0  0  0  0  0
    5.6000   -1.3856    0.0000 O   0  0  0  0  0  0  0  0  0  0  0  0
    7.2000   -1.3856    0.0000 C   0  0  0  0  0  0  0  0  0  0  0  0
    8.8000   -1.3856    0.0000 H   0  0  0  0  0  0  0  0  0  0  0  0
    8.0000   -2.7713    0.0000 H   0  0  0  0  0  0  0  0  0  0  0  0
    8.0000    0.0000    0.0000 H   0  0  0  0  0  0  0  0  0  0  0  0
  1  2  2  0  0  0  0
  1  3  1  0  0  0  0
  3  4  1  0  0  0  0
  4  5  1  0  0  0  0
  5  6  1  0  0  0  0
  4  7  2  0  0  0  0
  7  8  1  0  0  0  0
  7  9  1  0  0  0  0
  9 10  1  0  0  0  0
 10 11  1  0  0  0  0
 10 12  1  0  0  0  0
 10 13  1  0  0  0  0
  9 14  2  0  0  0  0
 14 15  1  0  0  0  0
 14 16  1  0  0  0  0
 16  3  2  0  0  0  0
 16 17  1  0  0  0  0
  1 18  1  0  0  0  0
 18 19  1  0  0  0  0
 19 20  1  0  0  0  0
 19 21  1  0  0  0  0
 19 22  1  0  0  0  0
M  END
> <ChemID>
104782

> <source_casrn>
4670-56-8

> <CAS>
NOCAS_863434

> <SMILES>
Cc1ccc(c(O)c1)C(=O)OC

> <NAME>
2-Hydroxy-4-methyl-benzoic acid methyl ester

> <preferred_name>


> <iupac>


> <MPID>
23673

> <dsstox_substance_id>
DTXSID40863434

> <Canonical_QSARr>
Cc1ccc(c(O)c1)C(=O)OC

> <InChI_Code_QSARr>
InChI=1S/C9H10O3/c1-6-3-4-7(8(10)5-6)9(11)12-2/h3-5,10H,1-2H3

> <InChI Key_QSARr>
UITFCFWKYAOJEJ-UHFFFAOYSA-N

> <Salt_Solvent>
?

> <BP>
243.0

$$$$
104786
  -INDIGO-08031720192D

 45 44  0  0  0  0  0  0  0  0999 V2000
    3.5711    1.3856    0.0000 O   0  0  0  0  0  0  0  0  0  0  0  0
    5.1712    1.3856    0.0000 H   0  0  0  0  0  0  0  0  0  0  0  0
    2.7713    0.0000    0.0000 C   0  0  0  0  0  0  0  0  0  0  0  0
    1.9714   -1.3856    0.0000 H   0  0  0  0  0  0  0  0  0  0  0  0
    1.3856    0.8000    0.0000 C   0  0  0  0  0  0  0  0  0  0  0  0
    1.9981    2.2782    0.0000 H   0  0  0  0  0  0  0  0  0  0  0  0
    0.7732    2.2782    0.0000 H   0  0  0  0  0  0  0  0  0  0  0  0
    0.0000    0.0000    0.0000 C   0  0  0  0  0  0  0  0  0  0  0  0
   -0.6124   -1.4782    0.0000 H   0  0  0  0  0  0  0  0  0  0  0  0
    0.6124   -1.4782    0.0000 H   0  0  0  0  0  0  0  0  0  0  0  0
   -1.3856    0.8000    0.0000 C   0  0  0  0  0  0  0  0  0  0  0  0
   -0.7732    2.2782    0.0000 H   0  0  0  0  0  0  0  0  0  0  0  0
   -1.9981    2.2782    0.0000 H   0  0  0  0  0  0  0  0  0  0  0  0
   -2.7713    0.0000    0.0000 C   0  0  0  0  0  0  0  0  0  0  0  0
   -3.3837   -1.4782    0.0000 H   0  0  0  0  0  0  0  0  0  0  0  0
   -2.1589   -1.4782    0.0000 H   0  0  0  0  0  0  0  0  0  0  0  0
   -4.1569    0.8000    0.0000 C   0  0  0  0  0  0  0  0  0  0  0  0
   -3.5445    2.2782    0.0000 H   0  0  0  0  0  0  0  0  0  0  0  0
   -4.7693    2.2782    0.0000 H   0  0  0  0  0  0  0  0  0  0  0  0
   -5.5426    0.0000    0.0000 C   0  0  0  0  0  0  0  0  0  0  0  0
   -6.1550   -1.4782    0.0000 H   0  0  0  0  0  0  0  0  0  0  0  0
   -4.9301   -1.4782    0.0000 H   0  0  0  0  0  0  0  0  0  0  0  0
   -6.9282    0.8000    0.0000 C   0  0  0  0  0  0  0  0  0  0  0  0
   -6.3158    2.2782    0.0000 H   0  0  0  0  0  0  0  0  0  0  0  0
   -7.5406    2.2782    0.0000 H   0  0  0  0  0  0  0  0  0  0  0  0
   -8.3138    0.0000    0.0000 C   0  0  0  0  0  0  0  0  0  0  0  0
   -8.9263   -1.4782    0.0000 H   0  0  0  0  0  0  0  0  0  0  0  0
   -7.7014   -1.4782    0.0000 H   0  0  0  0  0  0  0  0  0  0  0  0
   -9.6995    0.8000    0.0000 C   0  0  0  0  0  0  0  0  0  0  0  0
   -9.0871    2.2782    0.0000 H   0  0  0  0  0  0  0  0  0  0  0  0
  -10.3119    2.2782    0.0000 H   0  0  0  0  0  0  0  0  0  0  0  0
  -11.0851    0.0000    0.0000 C   0  0  0  0  0  0  0  0  0  0  0  0
  -11.6975   -1.4782    0.0000 H   0  0  0  0  0  0  0  0  0  0  0  0
  -10.4727   -1.4782    0.0000 H   0  0  0  0  0  0  0  0  0  0  0  0
  -12.4708    0.8000    0.0000 C   0  0  0  0  0  0  0  0  0  0  0  0
  -11.8583    2.2782    0.0000 H   0  0  0  0  0  0  0  0  0  0  0  0
  -13.0832    2.2782    0.0000 H   0  0  0  0  0  0  0  0  0  0  0  0
  -13.8564    0.0000    0.0000 C   0  0  0  0  0  0  0  0  0  0  0  0
  -15.2420   -0.8000    0.0000 H   0  0  0  0  0  0  0  0  0  0  0  0
  -15.2420    0.8000    0.0000 H   0  0  0  0  0  0  0  0  0  0  0  0
  -13.8564   -1.6000    0.0000 H   0  0  0  0  0  0  0  0  0  0  0  0
    4.1569   -0.8000    0.0000 C   0  0  0  0  0  0  0  0  0  0  0  0
    5.5426   -1.6000    0.0000 H   0  0  0  0  0  0  0  0  0  0  0  0
    5.5426    0.0000    0.0000 H   0  0  0  0  0  0  0  0  0  0  0  0
    4.1569   -2.4000    0.0000 H   0  0  0  0  0  0  0  0  0  0  0  0
  1  2  1  0  0  0  0
  1  3  1  0  0  0  0
  3  4  1  0  0  0  0
  3  5  1  0  0  0  0
  5  6  1  0  0  0  0
  5  7  1  0  0  0  0
  5  8  1  0  0  0  0
  8  9  1  0  0  0  0
  8 10  1  0  0  0  0
  8 11  1  0  0  0  0
 11 12  1  0  0  0  0
 11 13  1  0  0  0  0
 11 14  1  0  0  0  0
 14 15  1  0  0  0  0
 14 16  1  0  0  0  0
 14 17  1  0  0  0  0
 17 18  1  0  0  0  0
 17 19  1  0  0  0  0
 17 20  1  0  0  0  0
 20 21  1  0  0  0  0
 20 22  1  0  0  0  0
 20 23  1  0  0  0  0
 23 24  1  0  0  0  0
 23 25  1  0  0  0  0
 23 26  1  0  0  0  0
 26 27  1  0  0  0  0
 26 28  1  0  0  0  0
 26 29  1  0  0  0  0
 29 30  1  0  0  0  0
 29 31  1  0  0  0  0
 29 32  1  0  0  0  0
 32 33  1  0  0  0  0
 32 34  1  0  0  0  0
 32 35  1  0  0  0  0
 35 36  1  0  0  0  0
 35 37  1  0  0  0  0
 35 38  1  0  0  0  0
 38 39  1  0  0  0  0
 38 40  1  0  0  0  0
 38 41  1  0  0  0  0
  3 42  1  0  0  0  0
 42 43  1  0  0  0  0
 42 44  1  0  0  0  0
 42 45  1  0  0  0  0
M  END
> <ChemID>
104786

> <source_casrn>
4706-81-4

> <CAS>
82272-45-5

> <SMILES>
CCCCCCCCCCCC[C@H](C)O

> <NAME>
2-TETRADECANOL

> <preferred_name>
PUBCHEM_25022194

> <iupac>
C14H30O

> <MPID>
23677

> <dsstox_substance_id>
DTXSID60648487

> <Canonical_QSARr>
CCCCCCCCCCCCC(C)O

> <InChI_Code_QSARr>
InChI=1S/C14H30O/c1-3-4-5-6-7-8-9-10-11-12-13-14(2)15/h14-15H,3-13H2,1-2H3

> <InChI Key_QSARr>
BRGJIIMZXMWMCC-UHFFFAOYSA-N

> <Salt_Solvent>
?

> <BP>
284.0

$$$$
104792
  -INDIGO-08031720192D

 16 16  0  0  0  0  0  0  0  0999 V2000
    2.0944    1.5217    0.0000 S   0  0  0  0  0  0  0  0  0  0  0  0
    2.5888    0.0000    0.0000 C   0  0  0  0  0  0  0  0  0  0  0  0
    4.0505    0.6508    0.0000 H   0  0  0  0  0  0  0  0  0  0  0  0
    3.3889   -1.3856    0.0000 H   0  0  0  0  0  0  0  0  0  0  0  0
    1.2945   -0.9405    0.0000 C   0  0  0  0  0  0  0  0  0  0  0  0
    2.3650   -2.1295    0.0000 H   0  0  0  0  0  0  0  0  0  0  0  0
    0.2238   -2.1295    0.0000 H   0  0  0  0  0  0  0  0  0  0  0  0
   -0.0000    0.0000    0.0000 C   0  0  0  0  0  0  0  0  0  0  0  0
   -0.8000   -1.3856    0.0000 H   0  0  0  0  0  0  0  0  0  0  0  0
   -1.5961    0.1116    0.0000 C   0  0  0  0  0  0  0  0  0  0  0  0
   -3.1922    0.2232    0.0000 H   0  0  0  0  0  0  0  0  0  0  0  0
   -2.4909   -1.2148    0.0000 H   0  0  0  0  0  0  0  0  0  0  0  0
   -2.2975    1.5497    0.0000 H   0  0  0  0  0  0  0  0  0  0  0  0
    0.4944    1.5217    0.0000 C   0  0  0  0  0  0  0  0  0  0  0  0
   -1.0706    1.8544    0.0000 H   0  0  0  0  0  0  0  0  0  0  0  0
    0.6616    3.1129    0.0000 H   0  0  0  0  0  0  0  0  0  0  0  0
  1  2  1  0  0  0  0
  2  3  1  0  0  0  0
  2  4  1  0  0  0  0
  2  5  1  0  0  0  0
  5  6  1  0  0  0  0
  5  7  1  0  0  0  0
  5  8  1  0  0  0  0
  8  9  1  0  0  0  0
  8 10  1  0  0  0  0
 10 11  1  0  0  0  0
 10 12  1  0  0  0  0
 10 13  1  0  0  0  0
  8 14  1  0  0  0  0
 14  1  1  0  0  0  0
 14 15  1  0  0  0  0
 14 16  1  0  0  0  0
M  END
> <ChemID>
104792

> <source_casrn>
4740-00-5

> <CAS>
NOCAS_871097

> <SMILES>
CC1CSCC1

> <NAME>
THIOPHENE, TETRAHYDRO-3-METHYL-

> <preferred_name>


> <iupac>


> <MPID>
23682

> <dsstox_substance_id>
DTXSID20871097

> <Canonical_QSARr>
CC1CSCC1

> <InChI_Code_QSARr>
InChI=1S/C5H10S/c1-5-2-3-6-4-5/h5H,2-4H2,1H3

> <InChI Key_QSARr>
DLABLFPCTXRQMY-UHFFFAOYSA-N

> <Salt_Solvent>
?

> <BP>
139.0

$$$$
104796
  -INDIGO-08031720192D

 16 15  0  0  0  0  0  0  0  0999 V2000
    0.8000    1.3856    0.0000 C   0  0  0  0  0  0  0  0  0  0  0  0
    1.6000    2.7713    0.0000 H   0  0  0  0  0  0  0  0  0  0  0  0
    0.0000    2.7713    0.0000 H   0  0  0  0  0  0  0  0  0  0  0  0
    2.4000    1.3856    0.0000 H   0  0  0  0  0  0  0  0  0  0  0  0
    0.0000    0.0000    0.0000 C   0  0  0  0  0  0  0  0  0  0  0  0
   -0.8000   -1.3856    0.0000 H   0  0  0  0  0  0  0  0  0  0  0  0
    1.3856   -0.8000    0.0000 C   0  0  0  0  0  0  0  0  0  0  0  0
    2.7713   -1.6000    0.0000 H   0  0  0  0  0  0  0  0  0  0  0  0
    1.3856   -2.4000    0.0000 H   0  0  0  0  0  0  0  0  0  0  0  0
    2.7713    0.0000    0.0000 H   0  0  0  0  0  0  0  0  0  0  0  0
   -1.3856    0.8000    0.0000 N   0  0  0  0  0  0  0  0  0  0  0  0
   -1.3856    2.4000    0.0000 H   0  0  0  0  0  0  0  0  0  0  0  0
   -2.7713    0.0000    0.0000 C   0  0  0  0  0  0  0  0  0  0  0  0
   -4.1569   -0.8000    0.0000 H   0  0  0  0  0  0  0  0  0  0  0  0
   -4.1569    0.8000    0.0000 H   0  0  0  0  0  0  0  0  0  0  0  0
   -2.7713   -1.6000    0.0000 H   0  0  0  0  0  0  0  0  0  0  0  0
  1  2  1  0  0  0  0
  1  3  1  0  0  0  0
  1  4  1  0  0  0  0
  1  5  1  0  0  0  0
  5  6  1  0  0  0  0
  5  7  1  0  0  0  0
  7  8  1  0  0  0  0
  7  9  1  0  0  0  0
  7 10  1  0  0  0  0
  5 11  1  0  0  0  0
 11 12  1  0  0  0  0
 11 13  1  0  0  0  0
 13 14  1  0  0  0  0
 13 15  1  0  0  0  0
 13 16  1  0  0  0  0
M  END
> <ChemID>
104796

> <source_casrn>
4747-21-1

> <CAS>
NOCAS_871098

> <SMILES>
CNC(C)C

> <NAME>
2-PROPANAMINE, N-METHYL-

> <preferred_name>


> <iupac>


> <MPID>
23686

> <dsstox_substance_id>
DTXSID80871098

> <Canonical_QSARr>
CNC(C)C

> <InChI_Code_QSARr>
InChI=1S/C4H11N/c1-4(2)5-3/h4-5H,1-3H3

> <InChI Key_QSARr>
XHFGWHUWQXTGAT-UHFFFAOYSA-N

> <Salt_Solvent>
?

> <BP>
50.4

$$$$
104800
  -INDIGO-08031720192D

 19 19  0  0  0  0  0  0  0  0999 V2000
    2.7292    0.4812    0.0000 O   0  0  0  0  0  0  0  0  0  0  0  0
    4.2327   -0.0660    0.0000 H   0  0  0  0  0  0  0  0  0  0  0  0
    1.5035   -0.5473    0.0000 C   0  0  0  0  0  0  0  0  0  0  0  0
    1.7814   -2.1229    0.0000 O   0  0  0  0  0  0  0  0  0  0  0  0
    0.0001   -0.0000    0.0000 C   0  0  0  0  0  0  0  0  0  0  0  0
    1.2257    1.0285    0.0000 H   0  0  0  0  0  0  0  0  0  0  0  0
   -0.8000    1.3857    0.0000 C   0  0  0  0  0  0  0  0  0  0  0  0
    0.7036    1.9329    0.0000 H   0  0  0  0  0  0  0  0  0  0  0  0
   -1.0779    2.9613    0.0000 H   0  0  0  0  0  0  0  0  0  0  0  0
   -2.4000    1.3857    0.0000 C   0  0  0  0  0  0  0  0  0  0  0  0
   -2.1221    2.9613    0.0000 H   0  0  0  0  0  0  0  0  0  0  0  0
   -3.9036    1.9329    0.0000 H   0  0  0  0  0  0  0  0  0  0  0  0
   -3.1999   -0.0000    0.0000 C   0  0  0  0  0  0  0  0  0  0  0  0
   -4.8000   -0.0000    0.0000 H   0  0  0  0  0  0  0  0  0  0  0  0
   -2.4000   -1.3857    0.0000 C   0  0  0  0  0  0  0  0  0  0  0  0
   -3.1999   -2.7713    0.0000 H   0  0  0  0  0  0  0  0  0  0  0  0
   -0.8000   -1.3857    0.0000 C   0  0  0  0  0  0  0  0  0  0  0  0
   -1.0779   -2.9613    0.0000 H   0  0  0  0  0  0  0  0  0  0  0  0
    0.7036   -1.9329    0.0000 H   0  0  0  0  0  0  0  0  0  0  0  0
  1  2  1  0  0  0  0
  1  3  1  0  0  0  0
  3  4  2  0  0  0  0
  3  5  1  0  0  0  0
  5  6  1  0  0  0  0
  5  7  1  0  0  0  0
  7  8  1  0  0  0  0
  7  9  1  0  0  0  0
  7 10  1  0  0  0  0
 10 11  1  0  0  0  0
 10 12  1  0  0  0  0
 10 13  1  0  0  0  0
 13 14  1  0  0  0  0
 13 15  2  0  0  0  0
 15 16  1  0  0  0  0
 15 17  1  0  0  0  0
 17  5  1  0  0  0  0
 17 18  1  0  0  0  0
 17 19  1  0  0  0  0
M  END
> <ChemID>
104800

> <source_casrn>
4771-80-6

> <CAS>
5709-98-8

> <SMILES>
OC(=O)[C@H]1CC=CCC1

> <NAME>
3-Cyclohexene-1-carboxylic acid

> <preferred_name>
(R)-Cyclohex-3-enecarboxylic acid

> <iupac>
C7H10O2

> <MPID>
23690

> <dsstox_substance_id>
DTXSID60353089

> <Canonical_QSARr>
OC(=O)C1CC=CCC1

> <InChI_Code_QSARr>
InChI=1S/C7H10O2/c8-7(9)6-4-2-1-3-5-6/h1-2,6H,3-5H2,(H,8,9)

> <InChI Key_QSARr>
VUSWCWPCANWBFG-UHFFFAOYSA-N

> <Salt_Solvent>
?

> <BP>
234.5

$$$$
104805
  -INDIGO-08031720192D

 18 18  0  0  0  0  0  0  0  0999 V2000
   -0.4944    1.5217    0.0000 O   0  0  0  0  0  0  0  0  0  0  0  0
    0.0000    0.0000    0.0000 C   0  0  0  0  0  0  0  0  0  0  0  0
    0.8001   -1.3856    0.0000 H   0  0  0  0  0  0  0  0  0  0  0  0
    1.4617    0.6508    0.0000 C   0  0  0  0  0  0  0  0  0  0  0  0
    2.2251    2.0569    0.0000 H   0  0  0  0  0  0  0  0  0  0  0  0
    1.0072    2.1849    0.0000 H   0  0  0  0  0  0  0  0  0  0  0  0
    2.7561   -0.2897    0.0000 N   0  0  0  0  0  0  0  0  0  0  0  0
    4.2178    0.3611    0.0000 H   0  0  0  0  0  0  0  0  0  0  0  0
    2.5888   -1.8809    0.0000 H   0  0  0  0  0  0  0  0  0  0  0  0
   -1.2944   -0.9405    0.0000 C   0  0  0  0  0  0  0  0  0  0  0  0
   -0.2238   -2.1295    0.0000 H   0  0  0  0  0  0  0  0  0  0  0  0
   -2.3651   -2.1295    0.0000 H   0  0  0  0  0  0  0  0  0  0  0  0
   -2.5889    0.0000    0.0000 C   0  0  0  0  0  0  0  0  0  0  0  0
   -3.3889   -1.3856    0.0000 H   0  0  0  0  0  0  0  0  0  0  0  0
   -4.0505    0.6508    0.0000 H   0  0  0  0  0  0  0  0  0  0  0  0
   -2.0944    1.5217    0.0000 C   0  0  0  0  0  0  0  0  0  0  0  0
   -3.6594    1.8544    0.0000 H   0  0  0  0  0  0  0  0  0  0  0  0
   -1.9272    3.1129    0.0000 H   0  0  0  0  0  0  0  0  0  0  0  0
  1  2  1  0  0  0  0
  2  3  1  0  0  0  0
  2  4  1  0  0  0  0
  4  5  1  0  0  0  0
  4  6  1  0  0  0  0
  4  7  1  0  0  0  0
  7  8  1  0  0  0  0
  7  9  1  0  0  0  0
  2 10  1  0  0  0  0
 10 11  1  0  0  0  0
 10 12  1  0  0  0  0
 10 13  1  0  0  0  0
 13 14  1  0  0  0  0
 13 15  1  0  0  0  0
 13 16  1  0  0  0  0
 16  1  1  0  0  0  0
 16 17  1  0  0  0  0
 16 18  1  0  0  0  0
M  END
> <ChemID>
104805

> <source_casrn>
4795-29-3

> <CAS>
7202-43-9

> <SMILES>
NC[C@H]1CCCO1

> <NAME>
2-Furanmethanamine, tetrahydro-

> <preferred_name>
(R)-(-)-Tetrahydrofurfurylamine

> <iupac>
C5H11NO

> <MPID>
23695

> <dsstox_substance_id>
DTXSID00370134

> <Canonical_QSARr>
NCC1CCCO1

> <InChI_Code_QSARr>
InChI=1S/C5H11NO/c6-4-5-2-1-3-7-5/h5H,1-4,6H2

> <InChI Key_QSARr>
YNOGYQAEJGADFJ-UHFFFAOYSA-N

> <Salt_Solvent>
?

> <BP>
153.0

$$$$
104810
  -INDIGO-08031720192D

 24 23  0  0  0  0  0  0  0  0999 V2000
    0.2528    2.8892    0.0000 C   0  0  0  0  0  0  0  0  0  0  0  0
    1.2812    4.1148    0.0000 H   0  0  0  0  0  0  0  0  0  0  0  0
   -1.3230    3.1669    0.0000 H   0  0  0  0  0  0  0  0  0  0  0  0
    0.8000    1.3856    0.0000 C   0  0  0  0  0  0  0  0  0  0  0  0
    2.3999    1.3856    0.0000 H   0  0  0  0  0  0  0  0  0  0  0  0
    0.0000   -0.0000    0.0000 C   0  0  0  0  0  0  0  0  0  0  0  0
   -0.8001   -1.3856    0.0000 H   0  0  0  0  0  0  0  0  0  0  0  0
   -1.3856    0.8000    0.0000 C   0  0  0  0  0  0  0  0  0  0  0  0
   -0.7733    2.2782    0.0000 H   0  0  0  0  0  0  0  0  0  0  0  0
   -1.9979    2.2782    0.0000 H   0  0  0  0  0  0  0  0  0  0  0  0
   -2.7713   -0.0000    0.0000 C   0  0  0  0  0  0  0  0  0  0  0  0
   -3.3836   -1.4782    0.0000 H   0  0  0  0  0  0  0  0  0  0  0  0
   -2.1590   -1.4782    0.0000 H   0  0  0  0  0  0  0  0  0  0  0  0
   -4.1570    0.8000    0.0000 C   0  0  0  0  0  0  0  0  0  0  0  0
   -3.5447    2.2782    0.0000 H   0  0  0  0  0  0  0  0  0  0  0  0
   -4.7693    2.2782    0.0000 H   0  0  0  0  0  0  0  0  0  0  0  0
   -5.5426   -0.0000    0.0000 C   0  0  0  0  0  0  0  0  0  0  0  0
   -6.9282   -0.8000    0.0000 H   0  0  0  0  0  0  0  0  0  0  0  0
   -6.9282    0.8000    0.0000 H   0  0  0  0  0  0  0  0  0  0  0  0
   -5.5426   -1.6000    0.0000 H   0  0  0  0  0  0  0  0  0  0  0  0
    1.3857   -0.8000    0.0000 C   0  0  0  0  0  0  0  0  0  0  0  0
    2.7713   -1.6000    0.0000 H   0  0  0  0  0  0  0  0  0  0  0  0
    2.7713   -0.0000    0.0000 H   0  0  0  0  0  0  0  0  0  0  0  0
    1.3857   -2.4000    0.0000 H   0  0  0  0  0  0  0  0  0  0  0  0
  1  2  1  0  0  0  0
  1  3  1  0  0  0  0
  1  4  2  0  0  0  0
  4  5  1  0  0  0  0
  4  6  1  0  0  0  0
  6  7  1  0  0  0  0
  6  8  1  0  0  0  0
  8  9  1  0  0  0  0
  8 10  1  0  0  0  0
  8 11  1  0  0  0  0
 11 12  1  0  0  0  0
 11 13  1  0  0  0  0
 11 14  1  0  0  0  0
 14 15  1  0  0  0  0
 14 16  1  0  0  0  0
 14 17  1  0  0  0  0
 17 18  1  0  0  0  0
 17 19  1  0  0  0  0
 17 20  1  0  0  0  0
  6 21  1  0  0  0  0
 21 22  1  0  0  0  0
 21 23  1  0  0  0  0
 21 24  1  0  0  0  0
M  END
> <ChemID>
104810

> <source_casrn>
4810-09-7

> <CAS>
4810-09-7

> <SMILES>
CCCCC(C)C=C

> <NAME>
1-HEPTENE, 3-METHYL-

> <preferred_name>


> <iupac>


> <MPID>
23700

> <dsstox_substance_id>
DTXSID50871101

> <Canonical_QSARr>
CCCCC(C)C=C

> <InChI_Code_QSARr>
InChI=1S/C8H16/c1-4-6-7-8(3)5-2/h5,8H,2,4,6-7H2,1,3H3

> <InChI Key_QSARr>
QDMFTFWKTYXBIW-UHFFFAOYSA-N

> <Salt_Solvent>
?

> <BP>
111.0

$$$$
104815
  -INDIGO-08031720192D

 30 31  0  0  0  0  0  0  0  0999 V2000
   -0.0001   -2.7713    0.0000 O   0  0  0  0  0  0  0  0  0  0  0  0
   -0.8001   -1.3856    0.0000 C   0  0  0  0  0  0  0  0  0  0  0  0
   -0.0001    0.0000    0.0000 C   0  0  0  0  0  0  0  0  0  0  0  0
    1.6001    0.0000    0.0000 C   0  0  0  0  0  0  0  0  0  0  0  0
    2.4001   -1.3857    0.0000 C   0  0  0  0  0  0  0  0  0  0  0  0
    1.6001   -2.7713    0.0000 O   0  0  0  0  0  0  0  0  0  0  0  0
    2.4001   -4.1569    0.0000 C   0  0  0  0  0  0  0  0  0  0  0  0
    3.2000   -5.5426    0.0000 H   0  0  0  0  0  0  0  0  0  0  0  0
    1.6001   -5.5426    0.0000 H   0  0  0  0  0  0  0  0  0  0  0  0
    4.0000   -4.1569    0.0000 H   0  0  0  0  0  0  0  0  0  0  0  0
    4.0000   -1.3856    0.0000 C   0  0  0  0  0  0  0  0  0  0  0  0
    4.8000   -2.7713    0.0000 H   0  0  0  0  0  0  0  0  0  0  0  0
    4.8000    0.0000    0.0000 C   0  0  0  0  0  0  0  0  0  0  0  0
    6.4000    0.0000    0.0000 H   0  0  0  0  0  0  0  0  0  0  0  0
    4.0000    1.3857    0.0000 C   0  0  0  0  0  0  0  0  0  0  0  0
    4.8000    2.7713    0.0000 H   0  0  0  0  0  0  0  0  0  0  0  0
    2.4001    1.3856    0.0000 C   0  0  0  0  0  0  0  0  0  0  0  0
    1.6001    2.7713    0.0000 H   0  0  0  0  0  0  0  0  0  0  0  0
   -0.8001    1.3857    0.0000 C   0  0  0  0  0  0  0  0  0  0  0  0
   -0.0001    2.7713    0.0000 H   0  0  0  0  0  0  0  0  0  0  0  0
   -2.4000    1.3857    0.0000 C   0  0  0  0  0  0  0  0  0  0  0  0
   -3.2000    2.7713    0.0000 H   0  0  0  0  0  0  0  0  0  0  0  0
   -3.2000    0.0000    0.0000 C   0  0  0  0  0  0  0  0  0  0  0  0
   -4.8000    0.0000    0.0000 H   0  0  0  0  0  0  0  0  0  0  0  0
   -2.4000   -1.3856    0.0000 C   0  0  0  0  0  0  0  0  0  0  0  0
   -3.2000   -2.7713    0.0000 H   0  0  0  0  0  0  0  0  0  0  0  0
   -0.8001   -4.1569    0.0000 C   0  0  0  0  0  0  0  0  0  0  0  0
   -1.6000   -5.5426    0.0000 H   0  0  0  0  0  0  0  0  0  0  0  0
   -2.4000   -4.1569    0.0000 H   0  0  0  0  0  0  0  0  0  0  0  0
   -0.0001   -5.5426    0.0000 H   0  0  0  0  0  0  0  0  0  0  0  0
  1  2  1  0  0  0  0
  2  3  1  0  0  0  0
  3  4  1  0  0  0  0
  4  5  1  0  0  0  0
  5  6  1  0  0  0  0
  6  7  1  0  0  0  0
  7  8  1  0  0  0  0
  7  9  1  0  0  0  0
  7 10  1  0  0  0  0
  5 11  2  0  0  0  0
 11 12  1  0  0  0  0
 11 13  1  0  0  0  0
 13 14  1  0  0  0  0
 13 15  2  0  0  0  0
 15 16  1  0  0  0  0
 15 17  1  0  0  0  0
 17  4  2  0  0  0  0
 17 18  1  0  0  0  0
  3 19  2  0  0  0  0
 19 20  1  0  0  0  0
 19 21  1  0  0  0  0
 21 22  1  0  0  0  0
 21 23  2  0  0  0  0
 23 24  1  0  0  0  0
 23 25  1  0  0  0  0
 25  2  2  0  0  0  0
 25 26  1  0  0  0  0
  1 27  1  0  0  0  0
 27 28  1  0  0  0  0
 27 29  1  0  0  0  0
 27 30  1  0  0  0  0
M  END
> <ChemID>
104815

> <source_casrn>
4877-93-4

> <CAS>
4877-93-4

> <SMILES>
COc1ccccc1-c1ccccc1OC

> <NAME>
1,1'-BIPHENYL, 2,2'-DIMETHOXY-

> <preferred_name>
2,2'-Dimethoxybiphenyl

> <iupac>
C14H14O2

> <MPID>
23704

> <dsstox_substance_id>
DTXSID60346395

> <Canonical_QSARr>
COc1ccccc1-c1ccccc1OC

> <InChI_Code_QSARr>
InChI=1S/C14H14O2/c1-15-13-9-5-3-7-11(13)12-8-4-6-10-14(12)16-2/h3-10H,1-2H3

> <InChI Key_QSARr>
VGMKUVCDINAAFC-UHFFFAOYSA-N

> <Salt_Solvent>
?

> <BP>
307.5

$$$$
104820
  -INDIGO-08031720192D

 17 16  0  0  0  0  0  0  0  0999 V2000
    1.3857    2.4000    0.0000 Br  0  0  0  0  0  0  0  0  0  0  0  0
    1.3857    0.8000    0.0000 C   0  0  0  0  0  0  0  0  0  0  0  0
    2.7713    1.6000    0.0000 H   0  0  0  0  0  0  0  0  0  0  0  0
    2.7713    0.0000    0.0000 H   0  0  0  0  0  0  0  0  0  0  0  0
    0.0000    0.0000    0.0000 C   0  0  0  0  0  0  0  0  0  0  0  0
   -0.6123   -1.4782    0.0000 H   0  0  0  0  0  0  0  0  0  0  0  0
    0.6123   -1.4782    0.0000 H   0  0  0  0  0  0  0  0  0  0  0  0
   -1.3856    0.8000    0.0000 C   0  0  0  0  0  0  0  0  0  0  0  0
   -0.7733    2.2782    0.0000 H   0  0  0  0  0  0  0  0  0  0  0  0
   -1.9979    2.2782    0.0000 H   0  0  0  0  0  0  0  0  0  0  0  0
   -2.7713    0.0000    0.0000 C   0  0  0  0  0  0  0  0  0  0  0  0
   -4.1570    0.8000    0.0000 O   0  0  0  0  0  0  0  0  0  0  0  0
   -5.5426    0.0000    0.0000 C   0  0  0  0  0  0  0  0  0  0  0  0
   -6.9282   -0.8000    0.0000 H   0  0  0  0  0  0  0  0  0  0  0  0
   -6.9282    0.8000    0.0000 H   0  0  0  0  0  0  0  0  0  0  0  0
   -5.5426   -1.6000    0.0000 H   0  0  0  0  0  0  0  0  0  0  0  0
   -2.7713   -1.6000    0.0000 O   0  0  0  0  0  0  0  0  0  0  0  0
  1  2  1  0  0  0  0
  2  3  1  0  0  0  0
  2  4  1  0  0  0  0
  2  5  1  0  0  0  0
  5  6  1  0  0  0  0
  5  7  1  0  0  0  0
  5  8  1  0  0  0  0
  8  9  1  0  0  0  0
  8 10  1  0  0  0  0
  8 11  1  0  0  0  0
 11 12  1  0  0  0  0
 12 13  1  0  0  0  0
 13 14  1  0  0  0  0
 13 15  1  0  0  0  0
 13 16  1  0  0  0  0
 11 17  2  0  0  0  0
M  END
> <ChemID>
104820

> <source_casrn>
4897-84-1

> <CAS>
4897-84-1

> <SMILES>
COC(=O)CCCBr

> <NAME>
BUTANOIC ACID, 4-BROMO-, METHYL ESTER

> <preferred_name>
Methyl 4-bromobutyrate

> <iupac>
methyl 4-bromobutanoate

> <MPID>
23709

> <dsstox_substance_id>
DTXSID50197651

> <Canonical_QSARr>
COC(=O)CCCBr

> <InChI_Code_QSARr>
InChI=1S/C5H9BrO2/c1-8-5(7)3-2-4-6/h2-4H2,1H3

> <InChI Key_QSARr>
QAWFLJGZSZIZHO-UHFFFAOYSA-N

> <Salt_Solvent>
?

> <BP>
186.5

$$$$
104824
  -INDIGO-08031720192D

 21 20  0  0  0  0  0  0  0  0999 V2000
    4.0001   -1.3857    0.0000 C   0  0  0  0  0  0  0  0  0  0  0  0
    4.8000   -2.7713    0.0000 H   0  0  0  0  0  0  0  0  0  0  0  0
    5.6000   -1.3857    0.0000 H   0  0  0  0  0  0  0  0  0  0  0  0
    3.2000   -2.7713    0.0000 H   0  0  0  0  0  0  0  0  0  0  0  0
    2.4000   -1.3857    0.0000 C   0  0  0  0  0  0  0  0  0  0  0  0
    1.6000   -2.7713    0.0000 H   0  0  0  0  0  0  0  0  0  0  0  0
    1.6000    0.0000    0.0000 C   0  0  0  0  0  0  0  0  0  0  0  0
    0.0000    0.0000    0.0000 C   0  0  0  0  0  0  0  0  0  0  0  0
    0.0000   -1.6000    0.0000 H   0  0  0  0  0  0  0  0  0  0  0  0
   -1.6001    0.0000    0.0000 C   0  0  0  0  0  0  0  0  0  0  0  0
   -3.2000    0.0000    0.0000 H   0  0  0  0  0  0  0  0  0  0  0  0
   -2.4000   -1.3857    0.0000 H   0  0  0  0  0  0  0  0  0  0  0  0
   -2.4000    1.3856    0.0000 H   0  0  0  0  0  0  0  0  0  0  0  0
    0.0000    1.6000    0.0000 C   0  0  0  0  0  0  0  0  0  0  0  0
    0.0000    3.2000    0.0000 H   0  0  0  0  0  0  0  0  0  0  0  0
   -1.3856    2.4000    0.0000 H   0  0  0  0  0  0  0  0  0  0  0  0
    1.3856    2.4000    0.0000 H   0  0  0  0  0  0  0  0  0  0  0  0
    2.4000    1.3856    0.0000 C   0  0  0  0  0  0  0  0  0  0  0  0
    4.0001    1.3856    0.0000 H   0  0  0  0  0  0  0  0  0  0  0  0
    3.2000    2.7713    0.0000 H   0  0  0  0  0  0  0  0  0  0  0  0
    3.2000    0.0000    0.0000 H   0  0  0  0  0  0  0  0  0  0  0  0
  1  2  1  0  0  0  0
  1  3  1  0  0  0  0
  1  4  1  0  0  0  0
  1  5  1  0  0  0  0
  5  6  1  0  0  0  0
  5  7  2  0  0  0  0
  7  8  1  0  0  0  0
  8  9  1  0  0  0  0
  8 10  1  0  0  0  0
 10 11  1  0  0  0  0
 10 12  1  0  0  0  0
 10 13  1  0  0  0  0
  8 14  1  0  0  0  0
 14 15  1  0  0  0  0
 14 16  1  0  0  0  0
 14 17  1  0  0  0  0
  7 18  1  0  0  0  0
 18 19  1  0  0  0  0
 18 20  1  0  0  0  0
 18 21  1  0  0  0  0
M  END
> <ChemID>
104824

> <source_casrn>
4914-91-4|4914-92-5|24910-63-2

> <CAS>
4914-91-4|4914-92-5|NOCAS_871104

> <SMILES>
C/C=C(/C)\C(C)C

> <NAME>
2-PENTENE, 3,4-DIMETHYL-, (Z)-, 2-PENTENE, 3,4-DIMETHYL-, (E)-, 3,4-DIMETHYL-2-PENTENE

> <preferred_name>


> <iupac>


> <MPID>
23713|23714|24440

> <dsstox_substance_id>
DTXSID10879002|DTXSID70879003|DTXSID30871104

> <Canonical_QSARr>
CC=C(C)C(C)C

> <InChI_Code_QSARr>
InChI=1S/C7H14/c1-5-7(4)6(2)3/h5-6H,1-4H3/b7-5+

> <InChI Key_QSARr>
PPBWEVVDSRKEIK-FNORWQNLSA-N

> <Salt_Solvent>
?

> <BP>
89.9333333333333

$$$$
104830
  -INDIGO-08031720192D

 27 27  0  0  0  0  0  0  0  0999 V2000
    0.0001   -0.0000    0.0000 C   0  0  0  0  0  0  0  0  0  0  0  0
    1.2256   -1.0285    0.0000 H   0  0  0  0  0  0  0  0  0  0  0  0
   -0.7999    1.3857    0.0000 C   0  0  0  0  0  0  0  0  0  0  0  0
    0.7756    1.6635    0.0000 H   0  0  0  0  0  0  0  0  0  0  0  0
   -1.0779    2.9613    0.0000 H   0  0  0  0  0  0  0  0  0  0  0  0
   -2.3999    1.3857    0.0000 C   0  0  0  0  0  0  0  0  0  0  0  0
   -2.1222    2.9613    0.0000 H   0  0  0  0  0  0  0  0  0  0  0  0
   -3.9036    1.9329    0.0000 H   0  0  0  0  0  0  0  0  0  0  0  0
   -3.1999   -0.0000    0.0000 C   0  0  0  0  0  0  0  0  0  0  0  0
   -4.4256    1.0285    0.0000 H   0  0  0  0  0  0  0  0  0  0  0  0
   -4.5857   -0.8000    0.0000 C   0  0  0  0  0  0  0  0  0  0  0  0
   -5.9713   -1.6000    0.0000 H   0  0  0  0  0  0  0  0  0  0  0  0
   -5.9713   -0.0000    0.0000 H   0  0  0  0  0  0  0  0  0  0  0  0
   -4.5857   -2.4000    0.0000 H   0  0  0  0  0  0  0  0  0  0  0  0
   -2.3999   -1.3857    0.0000 C   0  0  0  0  0  0  0  0  0  0  0  0
   -3.9036   -1.9329    0.0000 H   0  0  0  0  0  0  0  0  0  0  0  0
   -2.1222   -2.9613    0.0000 H   0  0  0  0  0  0  0  0  0  0  0  0
   -0.7999   -1.3857    0.0000 C   0  0  0  0  0  0  0  0  0  0  0  0
   -1.0779   -2.9613    0.0000 H   0  0  0  0  0  0  0  0  0  0  0  0
    0.7035   -1.9329    0.0000 H   0  0  0  0  0  0  0  0  0  0  0  0
    1.2256    1.0285    0.0000 C   0  0  0  0  0  0  0  0  0  0  0  0
    0.3660    2.3779    0.0000 H   0  0  0  0  0  0  0  0  0  0  0  0
    1.5720    2.5905    0.0000 H   0  0  0  0  0  0  0  0  0  0  0  0
    2.7292    0.4812    0.0000 C   0  0  0  0  0  0  0  0  0  0  0  0
    4.2327   -0.0660    0.0000 H   0  0  0  0  0  0  0  0  0  0  0  0
    3.9549    1.5097    0.0000 H   0  0  0  0  0  0  0  0  0  0  0  0
    3.0070   -1.0945    0.0000 H   0  0  0  0  0  0  0  0  0  0  0  0
  1  2  1  0  0  0  0
  1  3  1  0  0  0  0
  3  4  1  0  0  0  0
  3  5  1  0  0  0  0
  3  6  1  0  0  0  0
  6  7  1  0  0  0  0
  6  8  1  0  0  0  0
  6  9  1  0  0  0  0
  9 10  1  0  0  0  0
  9 11  1  0  0  0  0
 11 12  1  0  0  0  0
 11 13  1  0  0  0  0
 11 14  1  0  0  0  0
  9 15  1  0  0  0  0
 15 16  1  0  0  0  0
 15 17  1  0  0  0  0
 15 18  1  0  0  0  0
 18  1  1  0  0  0  0
 18 19  1  0  0  0  0
 18 20  1  0  0  0  0
  1 21  1  0  0  0  0
 21 22  1  0  0  0  0
 21 23  1  0  0  0  0
 21 24  1  0  0  0  0
 24 25  1  0  0  0  0
 24 26  1  0  0  0  0
 24 27  1  0  0  0  0
M  END
> <ChemID>
104830

> <source_casrn>
4926-78-7|6236-88-0

> <CAS>
3728-56-1

> <SMILES>
CC1CCC(CC1)CC

> <NAME>
CYCLOHEXANE, 1-ETHYL-4-METHYL-, CIS-, CYCLOHEXANE, 1-ETHYL-4-METHYL-, TRANS-

> <preferred_name>
Cyclohexane, 1-ethyl-4-methyl-

> <iupac>
1-Ethyl-4-methylcyclohexane

> <MPID>
23719|23894

> <dsstox_substance_id>
DTXSID00190733

> <Canonical_QSARr>
CC1CCC(CC1)CC

> <InChI_Code_QSARr>
InChI=1S/C9H18/c1-3-9-6-4-8(2)5-7-9/h8-9H,3-7H2,1-2H3

> <InChI Key_QSARr>
CYISMTMRBPPERU-UHFFFAOYSA-N

> <Salt_Solvent>
?

> <BP>
150.8

$$$$
104834
  -INDIGO-08031720192D

 31 32  0  0  0  0  0  0  0  0999 V2000
   -0.0001    0.0000    0.0000 C   0  0  0  0  0  0  0  0  0  0  0  0
    0.8596    1.3494    0.0000 H   0  0  0  0  0  0  0  0  0  0  0  0
   -0.3462    1.5621    0.0000 H   0  0  0  0  0  0  0  0  0  0  0  0
   -1.5758   -0.2778    0.0000 C   0  0  0  0  0  0  0  0  0  0  0  0
   -2.1230   -1.7813    0.0000 C   0  0  0  0  0  0  0  0  0  0  0  0
   -1.0945   -3.0071    0.0000 H   0  0  0  0  0  0  0  0  0  0  0  0
   -3.6987   -2.0591    0.0000 C   0  0  0  0  0  0  0  0  0  0  0  0
   -4.2459   -3.5627    0.0000 H   0  0  0  0  0  0  0  0  0  0  0  0
   -4.7271   -0.8335    0.0000 C   0  0  0  0  0  0  0  0  0  0  0  0
   -6.3028   -1.1113    0.0000 C   0  0  0  0  0  0  0  0  0  0  0  0
   -7.8785   -1.3892    0.0000 H   0  0  0  0  0  0  0  0  0  0  0  0
   -7.3312    0.1143    0.0000 H   0  0  0  0  0  0  0  0  0  0  0  0
   -6.8500   -2.6148    0.0000 H   0  0  0  0  0  0  0  0  0  0  0  0
   -4.1799    0.6700    0.0000 C   0  0  0  0  0  0  0  0  0  0  0  0
   -5.2084    1.8957    0.0000 H   0  0  0  0  0  0  0  0  0  0  0  0
   -2.6042    0.9479    0.0000 C   0  0  0  0  0  0  0  0  0  0  0  0
   -2.0570    2.4513    0.0000 H   0  0  0  0  0  0  0  0  0  0  0  0
    1.3856   -0.8000    0.0000 C   0  0  0  0  0  0  0  0  0  0  0  0
    1.3856   -2.4000    0.0000 C   0  0  0  0  0  0  0  0  0  0  0  0
   -0.0001   -3.2000    0.0000 H   0  0  0  0  0  0  0  0  0  0  0  0
    2.7712   -3.2000    0.0000 C   0  0  0  0  0  0  0  0  0  0  0  0
    2.7712   -4.8000    0.0000 H   0  0  0  0  0  0  0  0  0  0  0  0
    4.1569   -2.4000    0.0000 C   0  0  0  0  0  0  0  0  0  0  0  0
    5.5425   -3.2000    0.0000 C   0  0  0  0  0  0  0  0  0  0  0  0
    6.9282   -4.0000    0.0000 H   0  0  0  0  0  0  0  0  0  0  0  0
    5.5425   -4.8000    0.0000 H   0  0  0  0  0  0  0  0  0  0  0  0
    6.9282   -2.4000    0.0000 H   0  0  0  0  0  0  0  0  0  0  0  0
    4.1569   -0.8000    0.0000 C   0  0  0  0  0  0  0  0  0  0  0  0
    5.5425    0.0000    0.0000 H   0  0  0  0  0  0  0  0  0  0  0  0
    2.7712    0.0000    0.0000 C   0  0  0  0  0  0  0  0  0  0  0  0
    2.7712    1.6000    0.0000 H   0  0  0  0  0  0  0  0  0  0  0  0
  1  2  1  0  0  0  0
  1  3  1  0  0  0  0
  1  4  1  0  0  0  0
  4  5  1  0  0  0  0
  5  6  1  0  0  0  0
  5  7  2  0  0  0  0
  7  8  1  0  0  0  0
  7  9  1  0  0  0  0
  9 10  1  0  0  0  0
 10 11  1  0  0  0  0
 10 12  1  0  0  0  0
 10 13  1  0  0  0  0
  9 14  2  0  0  0  0
 14 15  1  0  0  0  0
 14 16  1  0  0  0  0
 16  4  2  0  0  0  0
 16 17  1  0  0  0  0
  1 18  1  0  0  0  0
 18 19  1  0  0  0  0
 19 20  1  0  0  0  0
 19 21  2  0  0  0  0
 21 22  1  0  0  0  0
 21 23  1  0  0  0  0
 23 24  1  0  0  0  0
 24 25  1  0  0  0  0
 24 26  1  0  0  0  0
 24 27  1  0  0  0  0
 23 28  2  0  0  0  0
 28 29  1  0  0  0  0
 28 30  1  0  0  0  0
 30 18  2  0  0  0  0
 30 31  1  0  0  0  0
M  END
> <ChemID>
104834

> <source_casrn>
4957-14-6

> <CAS>
4957-14-6

> <SMILES>
Cc1ccc(Cc2ccc(C)cc2)cc1

> <NAME>
BENZENE, 1,1'-METHYLENEBIS[4-METHYL-

> <preferred_name>
Methane, di-p-tolyl-

> <iupac>
1-methyl-4-[(4-methylphenyl)methyl]benzene

> <MPID>
23723

> <dsstox_substance_id>
DTXSID90197852

> <Canonical_QSARr>
Cc1ccc(Cc2ccc(C)cc2)cc1

> <InChI_Code_QSARr>
InChI=1S/C15H16/c1-12-3-7-14(8-4-12)11-15-9-5-13(2)6-10-15/h3-10H,11H2,1-2H3

> <InChI Key_QSARr>
HZAWPPRBCALFRN-UHFFFAOYSA-N

> <Salt_Solvent>
?

> <BP>
286.0

$$$$
104838
  -INDIGO-08031720192D

 30 29  0  0  0  0  0  0  0  0999 V2000
    6.2090    1.8389    0.0000 C   0  0  0  0  0  0  0  0  0  0  0  0
    7.4347    2.8674    0.0000 H   0  0  0  0  0  0  0  0  0  0  0  0
    4.7055    2.3861    0.0000 H   0  0  0  0  0  0  0  0  0  0  0  0
    6.4867    0.2632    0.0000 C   0  0  0  0  0  0  0  0  0  0  0  0
    8.0625   -0.0146    0.0000 H   0  0  0  0  0  0  0  0  0  0  0  0
    5.4583   -0.9625    0.0000 C   0  0  0  0  0  0  0  0  0  0  0  0
    4.4299   -2.1881    0.0000 H   0  0  0  0  0  0  0  0  0  0  0  0
    4.2328    0.0660    0.0000 C   0  0  0  0  0  0  0  0  0  0  0  0
    3.8865    1.6281    0.0000 H   0  0  0  0  0  0  0  0  0  0  0  0
    5.0924    1.4154    0.0000 H   0  0  0  0  0  0  0  0  0  0  0  0
    2.7291   -0.4812    0.0000 C   0  0  0  0  0  0  0  0  0  0  0  0
    3.0754   -2.0433    0.0000 H   0  0  0  0  0  0  0  0  0  0  0  0
    1.8694   -1.8307    0.0000 H   0  0  0  0  0  0  0  0  0  0  0  0
    1.5036    0.5473    0.0000 C   0  0  0  0  0  0  0  0  0  0  0  0
    1.1572    2.1094    0.0000 H   0  0  0  0  0  0  0  0  0  0  0  0
    2.3632    1.8967    0.0000 H   0  0  0  0  0  0  0  0  0  0  0  0
    0.0001    0.0000    0.0000 C   0  0  0  0  0  0  0  0  0  0  0  0
    0.8001   -1.3856    0.0000 H   0  0  0  0  0  0  0  0  0  0  0  0
   -1.3857   -0.8000    0.0000 C   0  0  0  0  0  0  0  0  0  0  0  0
   -2.7713   -1.6000    0.0000 H   0  0  0  0  0  0  0  0  0  0  0  0
   -1.3857   -2.4000    0.0000 H   0  0  0  0  0  0  0  0  0  0  0  0
   -2.7713    0.0000    0.0000 H   0  0  0  0  0  0  0  0  0  0  0  0
   -0.8001    1.3856    0.0000 C   0  0  0  0  0  0  0  0  0  0  0  0
   -1.6001    2.7713    0.0000 H   0  0  0  0  0  0  0  0  0  0  0  0
    0.0001    2.7713    0.0000 H   0  0  0  0  0  0  0  0  0  0  0  0
   -2.4001    1.3856    0.0000 H   0  0  0  0  0  0  0  0  0  0  0  0
    6.6841   -1.9909    0.0000 C   0  0  0  0  0  0  0  0  0  0  0  0
    7.9096   -3.0194    0.0000 H   0  0  0  0  0  0  0  0  0  0  0  0
    8.1875   -1.4436    0.0000 H   0  0  0  0  0  0  0  0  0  0  0  0
    6.4061   -3.5666    0.0000 H   0  0  0  0  0  0  0  0  0  0  0  0
  1  2  1  0  0  0  0
  1  3  1  0  0  0  0
  1  4  2  0  0  0  0
  4  5  1  0  0  0  0
  4  6  1  0  0  0  0
  6  7  1  0  0  0  0
  6  8  1  0  0  0  0
  8  9  1  0  0  0  0
  8 10  1  0  0  0  0
  8 11  1  0  0  0  0
 11 12  1  0  0  0  0
 11 13  1  0  0  0  0
 11 14  1  0  0  0  0
 14 15  1  0  0  0  0
 14 16  1  0  0  0  0
 14 17  1  0  0  0  0
 17 18  1  0  0  0  0
 17 19  1  0  0  0  0
 19 20  1  0  0  0  0
 19 21  1  0  0  0  0
 19 22  1  0  0  0  0
 17 23  1  0  0  0  0
 23 24  1  0  0  0  0
 23 25  1  0  0  0  0
 23 26  1  0  0  0  0
  6 27  1  0  0  0  0
 27 28  1  0  0  0  0
 27 29  1  0  0  0  0
 27 30  1  0  0  0  0
M  END
> <ChemID>
104838

> <source_casrn>
4984-01-4

> <CAS>
NOCAS_871109

> <SMILES>
CC(C)CCCC(C)C=C

> <NAME>
1-OCTENE, 3,7-DIMETHYL-

> <preferred_name>


> <iupac>


> <MPID>
23727

> <dsstox_substance_id>
DTXSID30871109

> <Canonical_QSARr>
CC(C)CCCC(C)C=C

> <InChI_Code_QSARr>
InChI=1S/C10H20/c1-5-10(4)8-6-7-9(2)3/h5,9-10H,1,6-8H2,2-4H3

> <InChI Key_QSARr>
KSXTZYRIJKDCEA-UHFFFAOYSA-N

> <Salt_Solvent>
?

> <BP>
154.0

$$$$
104842
  -INDIGO-08031720192D

 24 23  0  0  0  0  0  0  0  0999 V2000
    6.9618   -0.4152    0.0000 C   0  0  0  0  0  0  0  0  0  0  0  0
    8.1875   -1.4437    0.0000 H   0  0  0  0  0  0  0  0  0  0  0  0
    7.2397    1.1605    0.0000 H   0  0  0  0  0  0  0  0  0  0  0  0
    5.4583   -0.9625    0.0000 C   0  0  0  0  0  0  0  0  0  0  0  0
    5.1806   -2.5381    0.0000 H   0  0  0  0  0  0  0  0  0  0  0  0
    4.2328    0.0660    0.0000 C   0  0  0  0  0  0  0  0  0  0  0  0
    3.8865    1.6281    0.0000 H   0  0  0  0  0  0  0  0  0  0  0  0
    5.0924    1.4155    0.0000 H   0  0  0  0  0  0  0  0  0  0  0  0
    2.7291   -0.4812    0.0000 C   0  0  0  0  0  0  0  0  0  0  0  0
    3.0754   -2.0433    0.0000 H   0  0  0  0  0  0  0  0  0  0  0  0
    1.8694   -1.8306    0.0000 H   0  0  0  0  0  0  0  0  0  0  0  0
    1.5036    0.5472    0.0000 C   0  0  0  0  0  0  0  0  0  0  0  0
    1.1572    2.1093    0.0000 H   0  0  0  0  0  0  0  0  0  0  0  0
    2.3632    1.8966    0.0000 H   0  0  0  0  0  0  0  0  0  0  0  0
    0.0001    0.0000    0.0000 C   0  0  0  0  0  0  0  0  0  0  0  0
    0.8001   -1.3856    0.0000 H   0  0  0  0  0  0  0  0  0  0  0  0
   -1.3857   -0.8000    0.0000 C   0  0  0  0  0  0  0  0  0  0  0  0
   -2.7713   -1.6000    0.0000 H   0  0  0  0  0  0  0  0  0  0  0  0
   -1.3857   -2.4000    0.0000 H   0  0  0  0  0  0  0  0  0  0  0  0
   -2.7713    0.0000    0.0000 H   0  0  0  0  0  0  0  0  0  0  0  0
   -0.8001    1.3857    0.0000 C   0  0  0  0  0  0  0  0  0  0  0  0
   -1.6001    2.7713    0.0000 H   0  0  0  0  0  0  0  0  0  0  0  0
    0.0001    2.7713    0.0000 H   0  0  0  0  0  0  0  0  0  0  0  0
   -2.4001    1.3857    0.0000 H   0  0  0  0  0  0  0  0  0  0  0  0
  1  2  1  0  0  0  0
  1  3  1  0  0  0  0
  1  4  2  0  0  0  0
  4  5  1  0  0  0  0
  4  6  1  0  0  0  0
  6  7  1  0  0  0  0
  6  8  1  0  0  0  0
  6  9  1  0  0  0  0
  9 10  1  0  0  0  0
  9 11  1  0  0  0  0
  9 12  1  0  0  0  0
 12 13  1  0  0  0  0
 12 14  1  0  0  0  0
 12 15  1  0  0  0  0
 15 16  1  0  0  0  0
 15 17  1  0  0  0  0
 17 18  1  0  0  0  0
 17 19  1  0  0  0  0
 17 20  1  0  0  0  0
 15 21  1  0  0  0  0
 21 22  1  0  0  0  0
 21 23  1  0  0  0  0
 21 24  1  0  0  0  0
M  END
> <ChemID>
104842

> <source_casrn>
5026-76-6

> <CAS>
11071-47-9

> <SMILES>
CC(C)CCCC=C

> <NAME>
6-METHYL-1-HEPTENE

> <preferred_name>
Isooctene

> <iupac>
6-methylhept-1-ene

> <MPID>
23731

> <dsstox_substance_id>
DTXSID4029721

> <Canonical_QSARr>
CC(C)CCCC=C

> <InChI_Code_QSARr>
InChI=1S/C8H16/c1-4-5-6-7-8(2)3/h4,8H,1,5-7H2,2-3H3

> <InChI Key_QSARr>
DFVOXRAAHOJJBN-UHFFFAOYSA-N

> <Salt_Solvent>
?

> <BP>
113.2

$$$$
104846
  -INDIGO-08031720192D

 14 13  0  0  0  0  0  0  0  0999 V2000
    1.3856    0.8000    0.0000 C   0  0  0  0  0  0  0  0  0  0  0  0
    2.7713    1.6000    0.0000 H   0  0  0  0  0  0  0  0  0  0  0  0
    2.7713    0.0000    0.0000 H   0  0  0  0  0  0  0  0  0  0  0  0
    1.3856    2.4000    0.0000 H   0  0  0  0  0  0  0  0  0  0  0  0
    0.0000    0.0000    0.0000 C   0  0  0  0  0  0  0  0  0  0  0  0
   -0.6122   -1.4782    0.0000 H   0  0  0  0  0  0  0  0  0  0  0  0
    0.6122   -1.4782    0.0000 H   0  0  0  0  0  0  0  0  0  0  0  0
   -1.3857    0.8000    0.0000 C   0  0  0  0  0  0  0  0  0  0  0  0
   -1.3857    2.4000    0.0000 O   0  0  0  0  0  0  0  0  0  0  0  0
   -2.7713    0.0000    0.0000 C   0  0  0  0  0  0  0  0  0  0  0  0
   -3.3835   -1.4782    0.0000 H   0  0  0  0  0  0  0  0  0  0  0  0
   -2.1590   -1.4782    0.0000 H   0  0  0  0  0  0  0  0  0  0  0  0
   -4.1569    0.8000    0.0000 O   0  0  0  0  0  0  0  0  0  0  0  0
   -5.5426    0.0000    0.0000 H   0  0  0  0  0  0  0  0  0  0  0  0
  1  2  1  0  0  0  0
  1  3  1  0  0  0  0
  1  4  1  0  0  0  0
  1  5  1  0  0  0  0
  5  6  1  0  0  0  0
  5  7  1  0  0  0  0
  5  8  1  0  0  0  0
  8  9  2  0  0  0  0
  8 10  1  0  0  0  0
 10 11  1  0  0  0  0
 10 12  1  0  0  0  0
 10 13  1  0  0  0  0
 13 14  1  0  0  0  0
M  END
> <ChemID>
104846

> <source_casrn>
5077-67-8

> <CAS>
5077-67-8

> <SMILES>
CCC(=O)CO

> <NAME>
2-Butanone, 1-hydroxy-

> <preferred_name>
2-Butanone, 1-hydroxy-

> <iupac>
1-Hydroxybutan-2-one

> <MPID>
23735

> <dsstox_substance_id>
DTXSID1063693

> <Canonical_QSARr>
CCC(=O)CO

> <InChI_Code_QSARr>
InChI=1S/C4H8O2/c1-2-4(6)3-5/h5H,2-3H2,1H3

> <InChI Key_QSARr>
GFAZHVHNLUBROE-UHFFFAOYSA-N

> <Salt_Solvent>
?

> <BP>
160.0

$$$$
104851
  -INDIGO-08031720192D

 27 27  0  0  0  0  0  0  0  0999 V2000
   -0.0001    0.0000    0.0000 C   0  0  0  0  0  0  0  0  0  0  0  0
    1.0285   -1.2257    0.0000 H   0  0  0  0  0  0  0  0  0  0  0  0
    1.3856    0.8000    0.0000 C   0  0  0  0  0  0  0  0  0  0  0  0
    1.9979    2.2782    0.0000 H   0  0  0  0  0  0  0  0  0  0  0  0
    0.7734    2.2782    0.0000 H   0  0  0  0  0  0  0  0  0  0  0  0
    2.7714    0.0000    0.0000 C   0  0  0  0  0  0  0  0  0  0  0  0
    4.1570    0.8000    0.0000 C   0  0  0  0  0  0  0  0  0  0  0  0
    4.1570    2.4000    0.0000 H   0  0  0  0  0  0  0  0  0  0  0  0
    5.5426    0.0000    0.0000 C   0  0  0  0  0  0  0  0  0  0  0  0
    6.9282    0.8000    0.0000 H   0  0  0  0  0  0  0  0  0  0  0  0
    5.5426   -1.6000    0.0000 C   0  0  0  0  0  0  0  0  0  0  0  0
    6.9282   -2.4000    0.0000 C   0  0  0  0  0  0  0  0  0  0  0  0
    8.3138   -3.2000    0.0000 H   0  0  0  0  0  0  0  0  0  0  0  0
    8.3138   -1.6000    0.0000 H   0  0  0  0  0  0  0  0  0  0  0  0
    6.9282   -4.0000    0.0000 H   0  0  0  0  0  0  0  0  0  0  0  0
    4.1570   -2.4000    0.0000 C   0  0  0  0  0  0  0  0  0  0  0  0
    4.1570   -4.0000    0.0000 H   0  0  0  0  0  0  0  0  0  0  0  0
    2.7714   -1.6000    0.0000 C   0  0  0  0  0  0  0  0  0  0  0  0
    1.3856   -2.4000    0.0000 H   0  0  0  0  0  0  0  0  0  0  0  0
   -1.2256   -1.0284    0.0000 C   0  0  0  0  0  0  0  0  0  0  0  0
   -2.4513   -2.0569    0.0000 H   0  0  0  0  0  0  0  0  0  0  0  0
   -2.7292   -0.4812    0.0000 H   0  0  0  0  0  0  0  0  0  0  0  0
   -0.9479   -2.6042    0.0000 H   0  0  0  0  0  0  0  0  0  0  0  0
   -1.0285    1.2256    0.0000 C   0  0  0  0  0  0  0  0  0  0  0  0
   -2.0568    2.4513    0.0000 H   0  0  0  0  0  0  0  0  0  0  0  0
   -0.4811    2.7292    0.0000 H   0  0  0  0  0  0  0  0  0  0  0  0
   -2.6041    0.9479    0.0000 H   0  0  0  0  0  0  0  0  0  0  0  0
  1  2  1  0  0  0  0
  1  3  1  0  0  0  0
  3  4  1  0  0  0  0
  3  5  1  0  0  0  0
  3  6  1  0  0  0  0
  6  7  1  0  0  0  0
  7  8  1  0  0  0  0
  7  9  2  0  0  0  0
  9 10  1  0  0  0  0
  9 11  1  0  0  0  0
 11 12  1  0  0  0  0
 12 13  1  0  0  0  0
 12 14  1  0  0  0  0
 12 15  1  0  0  0  0
 11 16  2  0  0  0  0
 16 17  1  0  0  0  0
 16 18  1  0  0  0  0
 18  6  2  0  0  0  0
 18 19  1  0  0  0  0
  1 20  1  0  0  0  0
 20 21  1  0  0  0  0
 20 22  1  0  0  0  0
 20 23  1  0  0  0  0
  1 24  1  0  0  0  0
 24 25  1  0  0  0  0
 24 26  1  0  0  0  0
 24 27  1  0  0  0  0
M  END
> <ChemID>
104851

> <source_casrn>
5161-04-6

> <CAS>
5161-04-6

> <SMILES>
Cc1ccc(CC(C)C)cc1

> <NAME>
BENZENE, 1-METHYL-4-(2-METHYLPROPYL)-

> <preferred_name>
Benzene, 1-methyl-4-(2-methylpropyl)-

> <iupac>
1-methyl-4-(2-methylpropyl)benzene

> <MPID>
23740

> <dsstox_substance_id>
DTXSID50199559

> <Canonical_QSARr>
Cc1ccc(CC(C)C)cc1

> <InChI_Code_QSARr>
InChI=1S/C11H16/c1-9(2)8-11-6-4-10(3)5-7-11/h4-7,9H,8H2,1-3H3

> <InChI Key_QSARr>
VCGBZXLLPCGFQM-UHFFFAOYSA-N

> <Salt_Solvent>
?

> <BP>
196.0

$$$$
104855
  -INDIGO-08031720192D

 12 11  0  0  0  0  0  0  0  0999 V2000
    0.0000    0.0000    0.0000 C   0  0  0  0  0  0  0  0  0  0  0  0
    0.6123   -1.4782    0.0000 H   0  0  0  0  0  0  0  0  0  0  0  0
   -0.6123   -1.4782    0.0000 H   0  0  0  0  0  0  0  0  0  0  0  0
   -1.3856    0.8000    0.0000 C   0  0  0  0  0  0  0  0  0  0  0  0
   -1.3856    2.4000    0.0000 H   0  0  0  0  0  0  0  0  0  0  0  0
   -2.7713    0.0000    0.0000 C   0  0  0  0  0  0  0  0  0  0  0  0
   -4.1569    0.8000    0.0000 H   0  0  0  0  0  0  0  0  0  0  0  0
   -2.7713   -1.6000    0.0000 H   0  0  0  0  0  0  0  0  0  0  0  0
    1.3856    0.8000    0.0000 C   0  0  0  0  0  0  0  0  0  0  0  0
    2.7713    1.6000    0.0000 H   0  0  0  0  0  0  0  0  0  0  0  0
    2.7713    0.0000    0.0000 H   0  0  0  0  0  0  0  0  0  0  0  0
    1.3856    2.4000    0.0000 Br  0  0  0  0  0  0  0  0  0  0  0  0
  1  2  1  0  0  0  0
  1  3  1  0  0  0  0
  1  4  1  0  0  0  0
  4  5  1  0  0  0  0
  4  6  2  0  0  0  0
  6  7  1  0  0  0  0
  6  8  1  0  0  0  0
  1  9  1  0  0  0  0
  9 10  1  0  0  0  0
  9 11  1  0  0  0  0
  9 12  1  0  0  0  0
M  END
> <ChemID>
104855

> <source_casrn>
5162-44-7

> <CAS>
5162-44-7

> <SMILES>
C=CCCBr

> <NAME>
4-BROMO-1-BUTENE

> <preferred_name>
1-Butene, 4-bromo-

> <iupac>
4-Bromobut-1-ene

> <MPID>
23744

> <dsstox_substance_id>
DTXSID1063722

> <Canonical_QSARr>
C=CCCBr

> <InChI_Code_QSARr>
InChI=1S/C4H7Br/c1-2-3-4-5/h2H,1,3-4H2

> <InChI Key_QSARr>
DMAYBPBPEUFIHJ-UHFFFAOYSA-N

> <Salt_Solvent>
?

> <BP>
98.5

$$$$
104861
  -INDIGO-08031720192D

 26 27  0  0  0  0  0  0  0  0999 V2000
    0.0000    0.0000    0.0000 C   0  0  0  0  0  0  0  0  0  0  0  0
    1.3856   -0.8000    0.0000 C   0  0  0  0  0  0  0  0  0  0  0  0
    0.5857   -2.1856    0.0000 H   0  0  0  0  0  0  0  0  0  0  0  0
    1.3856    0.8000    0.0000 C   0  0  0  0  0  0  0  0  0  0  0  0
    0.5857    2.1857    0.0000 H   0  0  0  0  0  0  0  0  0  0  0  0
    2.7713    1.6000    0.0000 C   0  0  0  0  0  0  0  0  0  0  0  0
    2.7713    3.2000    0.0000 H   0  0  0  0  0  0  0  0  0  0  0  0
    4.1569    0.8000    0.0000 C   0  0  0  0  0  0  0  0  0  0  0  0
    5.5426    1.6000    0.0000 H   0  0  0  0  0  0  0  0  0  0  0  0
    4.1569   -0.8000    0.0000 C   0  0  0  0  0  0  0  0  0  0  0  0
    4.7042   -2.3035    0.0000 H   0  0  0  0  0  0  0  0  0  0  0  0
    2.7713   -1.6000    0.0000 C   0  0  0  0  0  0  0  0  0  0  0  0
    1.7427   -2.8257    0.0000 H   0  0  0  0  0  0  0  0  0  0  0  0
    3.7998   -2.8257    0.0000 H   0  0  0  0  0  0  0  0  0  0  0  0
    5.7327   -0.5222    0.0000 C   0  0  0  0  0  0  0  0  0  0  0  0
    7.3083   -0.2443    0.0000 H   0  0  0  0  0  0  0  0  0  0  0  0
    6.7611   -1.7478    0.0000 H   0  0  0  0  0  0  0  0  0  0  0  0
    6.2798    0.9813    0.0000 H   0  0  0  0  0  0  0  0  0  0  0  0
   -1.0285    1.2256    0.0000 C   0  0  0  0  0  0  0  0  0  0  0  0
   -2.0569    2.4514    0.0000 H   0  0  0  0  0  0  0  0  0  0  0  0
   -2.6042    0.9479    0.0000 H   0  0  0  0  0  0  0  0  0  0  0  0
   -0.4813    2.7291    0.0000 H   0  0  0  0  0  0  0  0  0  0  0  0
   -1.0285   -1.2256    0.0000 C   0  0  0  0  0  0  0  0  0  0  0  0
   -2.0569   -2.4514    0.0000 H   0  0  0  0  0  0  0  0  0  0  0  0
   -2.6042   -0.9479    0.0000 H   0  0  0  0  0  0  0  0  0  0  0  0
   -0.4813   -2.7292    0.0000 H   0  0  0  0  0  0  0  0  0  0  0  0
  1  2  1  0  0  0  0
  2  3  1  0  0  0  0
  2  4  1  0  0  0  0
  4  1  1  0  0  0  0
  4  5  1  0  0  0  0
  4  6  1  0  0  0  0
  6  7  1  0  0  0  0
  6  8  2  0  0  0  0
  8  9  1  0  0  0  0
  8 10  1  0  0  0  0
 10 11  1  0  0  0  0
 10 12  1  0  0  0  0
 12  2  1  0  0  0  0
 12 13  1  0  0  0  0
 12 14  1  0  0  0  0
 10 15  1  0  0  0  0
 15 16  1  0  0  0  0
 15 17  1  0  0  0  0
 15 18  1  0  0  0  0
  1 19  1  0  0  0  0
 19 20  1  0  0  0  0
 19 21  1  0  0  0  0
 19 22  1  0  0  0  0
  1 23  1  0  0  0  0
 23 24  1  0  0  0  0
 23 25  1  0  0  0  0
 23 26  1  0  0  0  0
M  END
> <ChemID>
104861

> <source_casrn>
5208-49-1

> <CAS>
13837-63-3

> <SMILES>
C[C@@H]1C[C@@H]2[C@H](C=C1)C2(C)C

> <NAME>
4-CARENE, (1S,3R,6R)-(-)-

> <preferred_name>
PUBCHEM_71351627

> <iupac>
C10H16

> <MPID>
23748

> <dsstox_substance_id>
DTXSID80777086

> <Canonical_QSARr>
CC1CC2C(C=C1)C2(C)C

> <InChI_Code_QSARr>
InChI=1S/C10H16/c1-7-4-5-8-9(6-7)10(8,2)3/h4-5,7-9H,6H2,1-3H3

> <InChI Key_QSARr>
LGNSZMLHOYDATP-UHFFFAOYSA-N

> <Salt_Solvent>
?

> <BP>
169.0

$$$$
104865
  -INDIGO-08031720192D

 19 19  0  0  0  0  0  0  0  0999 V2000
    1.3856    2.4000    0.0000 S   0  0  0  0  0  0  0  0  0  0  0  0
    2.7713    1.6000    0.0000 C   0  0  0  0  0  0  0  0  0  0  0  0
    3.3185    3.1035    0.0000 H   0  0  0  0  0  0  0  0  0  0  0  0
    4.3470    1.3222    0.0000 H   0  0  0  0  0  0  0  0  0  0  0  0
    2.7713    0.0000    0.0000 C   0  0  0  0  0  0  0  0  0  0  0  0
    4.3470    0.2779    0.0000 H   0  0  0  0  0  0  0  0  0  0  0  0
    3.3185   -1.5035    0.0000 H   0  0  0  0  0  0  0  0  0  0  0  0
    1.3856   -0.8000    0.0000 C   0  0  0  0  0  0  0  0  0  0  0  0
    2.4141   -2.0257    0.0000 H   0  0  0  0  0  0  0  0  0  0  0  0
    0.3572   -2.0257    0.0000 H   0  0  0  0  0  0  0  0  0  0  0  0
    0.0000    0.0000    0.0000 C   0  0  0  0  0  0  0  0  0  0  0  0
   -0.5472   -1.5035    0.0000 H   0  0  0  0  0  0  0  0  0  0  0  0
   -1.5757   -0.2778    0.0000 C   0  0  0  0  0  0  0  0  0  0  0  0
   -3.1514   -0.5557    0.0000 H   0  0  0  0  0  0  0  0  0  0  0  0
   -2.1229   -1.7813    0.0000 H   0  0  0  0  0  0  0  0  0  0  0  0
   -2.6041    0.9478    0.0000 H   0  0  0  0  0  0  0  0  0  0  0  0
    0.0000    1.6000    0.0000 C   0  0  0  0  0  0  0  0  0  0  0  0
   -1.5757    1.3222    0.0000 H   0  0  0  0  0  0  0  0  0  0  0  0
   -0.5472    3.1035    0.0000 H   0  0  0  0  0  0  0  0  0  0  0  0
  1  2  1  0  0  0  0
  2  3  1  0  0  0  0
  2  4  1  0  0  0  0
  2  5  1  0  0  0  0
  5  6  1  0  0  0  0
  5  7  1  0  0  0  0
  5  8  1  0  0  0  0
  8  9  1  0  0  0  0
  8 10  1  0  0  0  0
  8 11  1  0  0  0  0
 11 12  1  0  0  0  0
 11 13  1  0  0  0  0
 13 14  1  0  0  0  0
 13 15  1  0  0  0  0
 13 16  1  0  0  0  0
 11 17  1  0  0  0  0
 17  1  1  0  0  0  0
 17 18  1  0  0  0  0
 17 19  1  0  0  0  0
M  END
> <ChemID>
104865

> <source_casrn>
5258-50-4

> <CAS>
NOCAS_871121

> <SMILES>
CC1CSCCC1

> <NAME>
2H-THIOPYRAN, TETRAHYDRO-3-METHYL-

> <preferred_name>


> <iupac>


> <MPID>
23752

> <dsstox_substance_id>
DTXSID50871121

> <Canonical_QSARr>
CC1CSCCC1

> <InChI_Code_QSARr>
InChI=1S/C6H12S/c1-6-3-2-4-7-5-6/h6H,2-5H2,1H3

> <InChI Key_QSARr>
WTPRCAYZVQKROM-UHFFFAOYSA-N

> <Salt_Solvent>
?

> <BP>
158.0

$$$$
104869
  -INDIGO-08031720192D

 14 14  0  0  0  0  0  0  0  0999 V2000
    0.8000    1.3856    0.0000 S   0  0  0  0  0  0  0  0  0  0  0  0
    0.0001   -0.0000    0.0000 C   0  0  0  0  0  0  0  0  0  0  0  0
    0.8000   -1.3857    0.0000 C   0  0  0  0  0  0  0  0  0  0  0  0
    2.4000   -1.3857    0.0000 H   0  0  0  0  0  0  0  0  0  0  0  0
    0.0001   -2.7713    0.0000 C   0  0  0  0  0  0  0  0  0  0  0  0
    0.8000   -4.1569    0.0000 H   0  0  0  0  0  0  0  0  0  0  0  0
   -1.5999   -2.7713    0.0000 C   0  0  0  0  0  0  0  0  0  0  0  0
   -2.4000   -4.1569    0.0000 H   0  0  0  0  0  0  0  0  0  0  0  0
   -2.4000   -1.3856    0.0000 C   0  0  0  0  0  0  0  0  0  0  0  0
   -4.0000   -1.3856    0.0000 H   0  0  0  0  0  0  0  0  0  0  0  0
   -1.5999   -0.0000    0.0000 C   0  0  0  0  0  0  0  0  0  0  0  0
   -2.4000    1.3856    0.0000 H   0  0  0  0  0  0  0  0  0  0  0  0
    2.4000    1.3856    0.0000 C   0  0  0  0  0  0  0  0  0  0  0  0
    4.0000    1.3856    0.0000 N   0  0  0  0  0  0  0  0  0  0  0  0
  1  2  1  0  0  0  0
  2  3  1  0  0  0  0
  3  4  1  0  0  0  0
  3  5  2  0  0  0  0
  5  6  1  0  0  0  0
  5  7  1  0  0  0  0
  7  8  1  0  0  0  0
  7  9  2  0  0  0  0
  9 10  1  0  0  0  0
  9 11  1  0  0  0  0
 11  2  2  0  0  0  0
 11 12  1  0  0  0  0
  1 13  1  0  0  0  0
 13 14  3  0  0  0  0
M  END
> <ChemID>
104869

> <source_casrn>
5285-87-0

> <CAS>
5285-87-0

> <SMILES>
N#CSc1ccccc1

> <NAME>
PHENYLTHIOCYANATE

> <preferred_name>
Thiocyanic acid, phenyl ester

> <iupac>
Thiocyanatobenzene

> <MPID>
23756

> <dsstox_substance_id>
DTXSID20200868

> <Canonical_QSARr>
N#CSc1ccccc1

> <InChI_Code_QSARr>
InChI=1S/C7H5NS/c8-6-9-7-4-2-1-3-5-7/h1-5H

> <InChI Key_QSARr>
YXCDJKQYFBEAOU-UHFFFAOYSA-N

> <Salt_Solvent>
?

> <BP>
232.5

$$$$
104873
  -INDIGO-08031720192D

 32 34  0  0  0  0  0  0  0  0999 V2000
   -0.0000    0.0000    0.0000 C   0  0  0  0  0  0  0  0  0  0  0  0
   -0.8000   -1.3856    0.0000 C   0  0  0  0  0  0  0  0  0  0  0  0
    0.7034   -1.9328    0.0000 H   0  0  0  0  0  0  0  0  0  0  0  0
   -1.0778   -2.9613    0.0000 H   0  0  0  0  0  0  0  0  0  0  0  0
   -2.4000   -1.3856    0.0000 C   0  0  0  0  0  0  0  0  0  0  0  0
   -2.1222   -2.9613    0.0000 H   0  0  0  0  0  0  0  0  0  0  0  0
   -3.9035   -1.9328    0.0000 H   0  0  0  0  0  0  0  0  0  0  0  0
   -3.1999    0.0000    0.0000 C   0  0  0  0  0  0  0  0  0  0  0  0
   -4.4257   -1.0285    0.0000 H   0  0  0  0  0  0  0  0  0  0  0  0
   -4.4257    1.0284    0.0000 H   0  0  0  0  0  0  0  0  0  0  0  0
   -2.4000    1.3857    0.0000 C   0  0  0  0  0  0  0  0  0  0  0  0
   -3.9035    1.9329    0.0000 H   0  0  0  0  0  0  0  0  0  0  0  0
   -2.1222    2.9614    0.0000 H   0  0  0  0  0  0  0  0  0  0  0  0
   -0.8000    1.3857    0.0000 C   0  0  0  0  0  0  0  0  0  0  0  0
   -0.0000    2.7713    0.0000 C   0  0  0  0  0  0  0  0  0  0  0  0
   -0.8000    4.1569    0.0000 H   0  0  0  0  0  0  0  0  0  0  0  0
    1.6000    2.7713    0.0000 C   0  0  0  0  0  0  0  0  0  0  0  0
    2.4000    4.1569    0.0000 H   0  0  0  0  0  0  0  0  0  0  0  0
    2.4000    1.3857    0.0000 C   0  0  0  0  0  0  0  0  0  0  0  0
    1.6000    0.0000    0.0000 C   0  0  0  0  0  0  0  0  0  0  0  0
    2.4000   -1.3856    0.0000 C   0  0  0  0  0  0  0  0  0  0  0  0
    2.6778   -2.9613    0.0000 H   0  0  0  0  0  0  0  0  0  0  0  0
    1.6000   -2.7713    0.0000 H   0  0  0  0  0  0  0  0  0  0  0  0
    4.0000   -1.3856    0.0000 C   0  0  0  0  0  0  0  0  0  0  0  0
    5.5035   -1.9328    0.0000 H   0  0  0  0  0  0  0  0  0  0  0  0
    3.7222   -2.9613    0.0000 H   0  0  0  0  0  0  0  0  0  0  0  0
    4.7999    0.0000    0.0000 C   0  0  0  0  0  0  0  0  0  0  0  0
    6.0257    1.0284    0.0000 H   0  0  0  0  0  0  0  0  0  0  0  0
    6.0257   -1.0285    0.0000 H   0  0  0  0  0  0  0  0  0  0  0  0
    4.0000    1.3857    0.0000 C   0  0  0  0  0  0  0  0  0  0  0  0
    3.7222    2.9614    0.0000 H   0  0  0  0  0  0  0  0  0  0  0  0
    5.5035    1.9329    0.0000 H   0  0  0  0  0  0  0  0  0  0  0  0
  1  2  1  0  0  0  0
  2  3  1  0  0  0  0
  2  4  1  0  0  0  0
  2  5  1  0  0  0  0
  5  6  1  0  0  0  0
  5  7  1  0  0  0  0
  5  8  1  0  0  0  0
  8  9  1  0  0  0  0
  8 10  1  0  0  0  0
  8 11  1  0  0  0  0
 11 12  1  0  0  0  0
 11 13  1  0  0  0  0
 11 14  1  0  0  0  0
 14  1  1  0  0  0  0
 14 15  2  0  0  0  0
 15 16  1  0  0  0  0
 15 17  1  0  0  0  0
 17 18  1  0  0  0  0
 17 19  2  0  0  0  0
 19 20  1  0  0  0  0
 20  1  2  0  0  0  0
 20 21  1  0  0  0  0
 21 22  1  0  0  0  0
 21 23  1  0  0  0  0
 21 24  1  0  0  0  0
 24 25  1  0  0  0  0
 24 26  1  0  0  0  0
 24 27  1  0  0  0  0
 27 28  1  0  0  0  0
 27 29  1  0  0  0  0
 27 30  1  0  0  0  0
 30 19  1  0  0  0  0
 30 31  1  0  0  0  0
 30 32  1  0  0  0  0
M  END
> <ChemID>
104873

> <source_casrn>
5325-97-3

> <CAS>
5325-97-3

> <SMILES>
C1CCCc2c3CCCCc3ccc21

> <NAME>
PHENANTHRENE, 1,2,3,4,5,6,7,8-OCTAHYDRO-

> <preferred_name>
1,2,3,4,5,6,7,8-Octahydrophenanthrene

> <iupac>
1,2,3,4,5,6,7,8-Octahydrophenanthrene

> <MPID>
23760

> <dsstox_substance_id>
DTXSID50201363

> <Canonical_QSARr>
C1CCCc2c3CCCCc3ccc21

> <InChI_Code_QSARr>
InChI=1S/C14H18/c1-3-7-13-11(5-1)9-10-12-6-2-4-8-14(12)13/h9-10H,1-8H2

> <InChI Key_QSARr>
YSZLFGZFQTTZIQ-UHFFFAOYSA-N

> <Salt_Solvent>
?

> <BP>
295.0

$$$$
104877
  -INDIGO-08031720192D

 17 18  0  0  0  0  0  0  0  0999 V2000
   -1.3856   -2.4000    0.0000 N   0  0  0  0  0  0  0  0  0  0  0  0
    0.0001   -1.6000    0.0000 C   0  0  0  0  0  0  0  0  0  0  0  0
    0.0001   -0.0000    0.0000 C   0  0  0  0  0  0  0  0  0  0  0  0
    1.3856    0.8000    0.0000 C   0  0  0  0  0  0  0  0  0  0  0  0
    1.3856    2.4000    0.0000 H   0  0  0  0  0  0  0  0  0  0  0  0
    2.7713   -0.0000    0.0000 C   0  0  0  0  0  0  0  0  0  0  0  0
    2.7713   -1.6000    0.0000 C   0  0  0  0  0  0  0  0  0  0  0  0
    4.1569   -2.4000    0.0000 H   0  0  0  0  0  0  0  0  0  0  0  0
    1.3856   -2.4000    0.0000 C   0  0  0  0  0  0  0  0  0  0  0  0
    1.3856   -4.0000    0.0000 H   0  0  0  0  0  0  0  0  0  0  0  0
    4.1569    0.8000    0.0000 Br  0  0  0  0  0  0  0  0  0  0  0  0
   -1.3856    0.8000    0.0000 C   0  0  0  0  0  0  0  0  0  0  0  0
   -1.3856    2.4000    0.0000 H   0  0  0  0  0  0  0  0  0  0  0  0
   -2.7712   -0.0000    0.0000 C   0  0  0  0  0  0  0  0  0  0  0  0
   -4.1569    0.8000    0.0000 H   0  0  0  0  0  0  0  0  0  0  0  0
   -2.7712   -1.6000    0.0000 C   0  0  0  0  0  0  0  0  0  0  0  0
   -4.1569   -2.4000    0.0000 H   0  0  0  0  0  0  0  0  0  0  0  0
  1  2  1  0  0  0  0
  2  3  1  0  0  0  0
  3  4  2  0  0  0  0
  4  5  1  0  0  0  0
  4  6  1  0  0  0  0
  6  7  2  0  0  0  0
  7  8  1  0  0  0  0
  7  9  1  0  0  0  0
  9  2  2  0  0  0  0
  9 10  1  0  0  0  0
  6 11  1  0  0  0  0
  3 12  1  0  0  0  0
 12 13  1  0  0  0  0
 12 14  2  0  0  0  0
 14 15  1  0  0  0  0
 14 16  1  0  0  0  0
 16  1  2  0  0  0  0
 16 17  1  0  0  0  0
M  END
> <ChemID>
104877

> <source_casrn>
5332-25-2

> <CAS>
5332-25-2

> <SMILES>
Brc1cc2ccc[n]c2cc1

> <NAME>
6-BROMOQUINOLINE

> <preferred_name>
Quinoline, 6-bromo-

> <iupac>
6-Bromoquinoline

> <MPID>
23764

> <dsstox_substance_id>
DTXSID5063788

> <Canonical_QSARr>
Brc1cc2ccc[n]c2cc1

> <InChI_Code_QSARr>
InChI=1S/C9H6BrN/c10-8-3-4-9-7(6-8)2-1-5-11-9/h1-6H

> <InChI Key_QSARr>
IFIHYLCUKYCKRH-UHFFFAOYSA-N

> <Salt_Solvent>
?

> <BP>
281.0

$$$$
104881
  -INDIGO-08031720192D

 25 25  0  0  0  0  0  0  0  0999 V2000
   -1.5999   -0.0000    0.0000 C   0  0  0  0  0  0  0  0  0  0  0  0
   -1.3222    1.5757    0.0000 H   0  0  0  0  0  0  0  0  0  0  0  0
   -2.4000   -1.3857    0.0000 C   0  0  0  0  0  0  0  0  0  0  0  0
   -3.6257   -0.3571    0.0000 H   0  0  0  0  0  0  0  0  0  0  0  0
   -3.9036   -1.9329    0.0000 C   0  0  0  0  0  0  0  0  0  0  0  0
   -5.4070   -2.4801    0.0000 H   0  0  0  0  0  0  0  0  0  0  0  0
   -5.1292   -0.9045    0.0000 H   0  0  0  0  0  0  0  0  0  0  0  0
   -4.1814   -3.5086    0.0000 H   0  0  0  0  0  0  0  0  0  0  0  0
   -1.5999   -2.7712    0.0000 C   0  0  0  0  0  0  0  0  0  0  0  0
   -3.1035   -3.3185    0.0000 H   0  0  0  0  0  0  0  0  0  0  0  0
   -1.3222   -4.3470    0.0000 H   0  0  0  0  0  0  0  0  0  0  0  0
   -0.0000   -2.7712    0.0000 C   0  0  0  0  0  0  0  0  0  0  0  0
   -0.2779   -4.3470    0.0000 H   0  0  0  0  0  0  0  0  0  0  0  0
    1.5036   -3.3185    0.0000 H   0  0  0  0  0  0  0  0  0  0  0  0
    0.8000   -1.3857    0.0000 C   0  0  0  0  0  0  0  0  0  0  0  0
    2.0256   -2.4141    0.0000 H   0  0  0  0  0  0  0  0  0  0  0  0
    2.0256   -0.3571    0.0000 H   0  0  0  0  0  0  0  0  0  0  0  0
   -0.0000   -0.0000    0.0000 C   0  0  0  0  0  0  0  0  0  0  0  0
   -0.2779    1.5757    0.0000 H   0  0  0  0  0  0  0  0  0  0  0  0
    1.2257    1.0284    0.0000 C   0  0  0  0  0  0  0  0  0  0  0  0
    2.4513    2.0570    0.0000 H   0  0  0  0  0  0  0  0  0  0  0  0
    0.9479    2.6042    0.0000 H   0  0  0  0  0  0  0  0  0  0  0  0
    2.7292    0.4812    0.0000 H   0  0  0  0  0  0  0  0  0  0  0  0
   -3.1035    0.5472    0.0000 O   0  0  0  0  0  0  0  0  0  0  0  0
   -3.3814    2.1229    0.0000 H   0  0  0  0  0  0  0  0  0  0  0  0
  1  2  1  0  0  0  0
  1  3  1  0  0  0  0
  3  4  1  0  0  0  0
  3  5  1  0  0  0  0
  5  6  1  0  0  0  0
  5  7  1  0  0  0  0
  5  8  1  0  0  0  0
  3  9  1  0  0  0  0
  9 10  1  0  0  0  0
  9 11  1  0  0  0  0
  9 12  1  0  0  0  0
 12 13  1  0  0  0  0
 12 14  1  0  0  0  0
 12 15  1  0  0  0  0
 15 16  1  0  0  0  0
 15 17  1  0  0  0  0
 15 18  1  0  0  0  0
 18  1  1  0  0  0  0
 18 19  1  0  0  0  0
 18 20  1  0  0  0  0
 20 21  1  0  0  0  0
 20 22  1  0  0  0  0
 20 23  1  0  0  0  0
  1 24  1  0  0  0  0
 24 25  1  0  0  0  0
M  END
> <ChemID>
104881

> <source_casrn>
5337-72-4

> <CAS>
NOCAS_871123

> <SMILES>
CC1CCCC(C)C1O

> <NAME>
2,6-DIMETHYLCYCLOHEXANOL

> <preferred_name>


> <iupac>


> <MPID>
23768

> <dsstox_substance_id>
DTXSID70871123

> <Canonical_QSARr>
CC1CCCC(C)C1O

> <InChI_Code_QSARr>
InChI=1S/C8H16O/c1-6-4-3-5-7(2)8(6)9/h6-9H,3-5H2,1-2H3

> <InChI Key_QSARr>
MOISVRZIQDQVPF-UHFFFAOYSA-N

> <Salt_Solvent>
?

> <BP>
176.0

$$$$
104886
  -INDIGO-08031720192D

 22 21  0  0  0  0  0  0  0  0999 V2000
    5.4584   -0.9625    0.0000 N   0  0  0  0  0  0  0  0  0  0  0  0
    6.9619   -0.4152    0.0000 H   0  0  0  0  0  0  0  0  0  0  0  0
    5.1805   -2.5381    0.0000 H   0  0  0  0  0  0  0  0  0  0  0  0
    4.2327    0.0660    0.0000 C   0  0  0  0  0  0  0  0  0  0  0  0
    3.8863    1.6281    0.0000 H   0  0  0  0  0  0  0  0  0  0  0  0
    5.0923    1.4155    0.0000 H   0  0  0  0  0  0  0  0  0  0  0  0
    2.7292   -0.4812    0.0000 C   0  0  0  0  0  0  0  0  0  0  0  0
    3.0754   -2.0433    0.0000 H   0  0  0  0  0  0  0  0  0  0  0  0
    1.8695   -1.8306    0.0000 H   0  0  0  0  0  0  0  0  0  0  0  0
    1.5035    0.5472    0.0000 C   0  0  0  0  0  0  0  0  0  0  0  0
    1.1572    2.1093    0.0000 H   0  0  0  0  0  0  0  0  0  0  0  0
    2.3631    1.8966    0.0000 H   0  0  0  0  0  0  0  0  0  0  0  0
    0.0001    0.0000    0.0000 C   0  0  0  0  0  0  0  0  0  0  0  0
    0.8000   -1.3856    0.0000 H   0  0  0  0  0  0  0  0  0  0  0  0
   -1.3856   -0.8000    0.0000 C   0  0  0  0  0  0  0  0  0  0  0  0
   -2.7713   -1.6000    0.0000 H   0  0  0  0  0  0  0  0  0  0  0  0
   -1.3856   -2.4000    0.0000 H   0  0  0  0  0  0  0  0  0  0  0  0
   -2.7713    0.0000    0.0000 H   0  0  0  0  0  0  0  0  0  0  0  0
   -0.8000    1.3857    0.0000 C   0  0  0  0  0  0  0  0  0  0  0  0
   -1.6001    2.7713    0.0000 H   0  0  0  0  0  0  0  0  0  0  0  0
    0.0001    2.7713    0.0000 H   0  0  0  0  0  0  0  0  0  0  0  0
   -2.4000    1.3857    0.0000 H   0  0  0  0  0  0  0  0  0  0  0  0
  1  2  1  0  0  0  0
  1  3  1  0  0  0  0
  1  4  1  0  0  0  0
  4  5  1  0  0  0  0
  4  6  1  0  0  0  0
  4  7  1  0  0  0  0
  7  8  1  0  0  0  0
  7  9  1  0  0  0  0
  7 10  1  0  0  0  0
 10 11  1  0  0  0  0
 10 12  1  0  0  0  0
 10 13  1  0  0  0  0
 13 14  1  0  0  0  0
 13 15  1  0  0  0  0
 15 16  1  0  0  0  0
 15 17  1  0  0  0  0
 15 18  1  0  0  0  0
 13 19  1  0  0  0  0
 19 20  1  0  0  0  0
 19 21  1  0  0  0  0
 19 22  1  0  0  0  0
M  END
> <ChemID>
104886

> <source_casrn>
5344-20-7

> <CAS>
5344-20-7

> <SMILES>
CC(C)CCCN

> <NAME>
4-Methyl-pentylamine

> <preferred_name>
Isohexylamine

> <iupac>
C6H15N

> <MPID>
23772

> <dsstox_substance_id>
DTXSID60277195

> <Canonical_QSARr>
CC(C)CCCN

> <InChI_Code_QSARr>
InChI=1S/C6H15N/c1-6(2)4-3-5-7/h6H,3-5,7H2,1-2H3

> <InChI Key_QSARr>
QVIAMKXOQGCYCV-UHFFFAOYSA-N

> <Salt_Solvent>
?

> <BP>
125.0

$$$$
104890
  -INDIGO-08031720192D

 19 18  0  0  0  0  0  0  0  0999 V2000
    5.5426    0.0000    0.0000 O   0  0  0  0  0  0  0  0  0  0  0  0
    6.9282    0.8000    0.0000 H   0  0  0  0  0  0  0  0  0  0  0  0
    4.1570    0.8000    0.0000 C   0  0  0  0  0  0  0  0  0  0  0  0
    3.5447    2.2782    0.0000 H   0  0  0  0  0  0  0  0  0  0  0  0
    4.7693    2.2782    0.0000 H   0  0  0  0  0  0  0  0  0  0  0  0
    2.7713    0.0000    0.0000 C   0  0  0  0  0  0  0  0  0  0  0  0
    2.7713   -1.6000    0.0000 H   0  0  0  0  0  0  0  0  0  0  0  0
    1.3856    0.8000    0.0000 C   0  0  0  0  0  0  0  0  0  0  0  0
    1.3856    2.4000    0.0000 H   0  0  0  0  0  0  0  0  0  0  0  0
   -0.0000    0.0000    0.0000 C   0  0  0  0  0  0  0  0  0  0  0  0
    0.8001   -1.3856    0.0000 H   0  0  0  0  0  0  0  0  0  0  0  0
   -1.3857   -0.8000    0.0000 C   0  0  0  0  0  0  0  0  0  0  0  0
   -2.7713   -1.6000    0.0000 H   0  0  0  0  0  0  0  0  0  0  0  0
   -1.3857   -2.4000    0.0000 H   0  0  0  0  0  0  0  0  0  0  0  0
   -2.7713    0.0000    0.0000 H   0  0  0  0  0  0  0  0  0  0  0  0
   -0.8000    1.3856    0.0000 C   0  0  0  0  0  0  0  0  0  0  0  0
   -1.6000    2.7713    0.0000 H   0  0  0  0  0  0  0  0  0  0  0  0
   -0.0000    2.7713    0.0000 H   0  0  0  0  0  0  0  0  0  0  0  0
   -2.3999    1.3856    0.0000 H   0  0  0  0  0  0  0  0  0  0  0  0
  1  2  1  0  0  0  0
  1  3  1  0  0  0  0
  3  4  1  0  0  0  0
  3  5  1  0  0  0  0
  3  6  1  0  0  0  0
  6  7  1  0  0  0  0
  6  8  2  0  0  0  0
  8  9  1  0  0  0  0
  8 10  1  0  0  0  0
 10 11  1  0  0  0  0
 10 12  1  0  0  0  0
 12 13  1  0  0  0  0
 12 14  1  0  0  0  0
 12 15  1  0  0  0  0
 10 16  1  0  0  0  0
 16 17  1  0  0  0  0
 16 18  1  0  0  0  0
 16 19  1  0  0  0  0
M  END
> <ChemID>
104890

> <source_casrn>
5362-55-0

> <CAS>
69143-05-1

> <SMILES>
CC(C)C=CCO

> <NAME>
2-PENTEN-1-OL, 4-METHYL-

> <preferred_name>
2-Penten-1-ol, 4-methyl-, (2E)-

> <iupac>
C6H12O

> <MPID>
23776

> <dsstox_substance_id>
DTXSID40336592

> <Canonical_QSARr>
CC(C)C=CCO

> <InChI_Code_QSARr>
InChI=1S/C6H12O/c1-6(2)4-3-5-7/h3-4,6-7H,5H2,1-2H3/b4-3+

> <InChI Key_QSARr>
BRYMKDNCWBMHIF-ONEGZZNKSA-N

> <Salt_Solvent>
?

> <BP>
159.0

$$$$
104894
  -INDIGO-08031720192D

 15 14  0  0  0  0  0  0  0  0999 V2000
   -0.6122   -1.4782    0.0000 Cl  0  0  0  0  0  0  0  0  0  0  0  0
    0.0000    0.0000    0.0000 C   0  0  0  0  0  0  0  0  0  0  0  0
    0.6122   -1.4782    0.0000 H   0  0  0  0  0  0  0  0  0  0  0  0
    1.3857    0.8000    0.0000 C   0  0  0  0  0  0  0  0  0  0  0  0
    0.7733    2.2782    0.0000 H   0  0  0  0  0  0  0  0  0  0  0  0
    1.9979    2.2782    0.0000 H   0  0  0  0  0  0  0  0  0  0  0  0
    2.7713    0.0000    0.0000 O   0  0  0  0  0  0  0  0  0  0  0  0
    4.1569    0.8000    0.0000 C   0  0  0  0  0  0  0  0  0  0  0  0
    5.5426    1.6000    0.0000 H   0  0  0  0  0  0  0  0  0  0  0  0
    5.5426    0.0000    0.0000 H   0  0  0  0  0  0  0  0  0  0  0  0
    4.1569    2.4000    0.0000 H   0  0  0  0  0  0  0  0  0  0  0  0
   -1.3856    0.8000    0.0000 C   0  0  0  0  0  0  0  0  0  0  0  0
   -2.7713    1.6000    0.0000 H   0  0  0  0  0  0  0  0  0  0  0  0
   -2.7713    0.0000    0.0000 H   0  0  0  0  0  0  0  0  0  0  0  0
   -1.3856    2.4000    0.0000 H   0  0  0  0  0  0  0  0  0  0  0  0
  1  2  1  0  0  0  0
  2  3  1  0  0  0  0
  2  4  1  0  0  0  0
  4  5  1  0  0  0  0
  4  6  1  0  0  0  0
  4  7  1  0  0  0  0
  7  8  1  0  0  0  0
  8  9  1  0  0  0  0
  8 10  1  0  0  0  0
  8 11  1  0  0  0  0
  2 12  1  0  0  0  0
 12 13  1  0  0  0  0
 12 14  1  0  0  0  0
 12 15  1  0  0  0  0
M  END
> <ChemID>
104894

> <source_casrn>
5390-71-6

> <CAS>
NOCAS_871125

> <SMILES>
COCC(C)Cl

> <NAME>
PROPANE, 2-CHLORO-1-METHOXY-

> <preferred_name>
2-Chloro-1-methoxypropane

> <iupac>
C4H9ClO

> <MPID>
23780

> <dsstox_substance_id>
DTXSID90871125

> <Canonical_QSARr>
COCC(C)Cl

> <InChI_Code_QSARr>
InChI=1S/C4H9ClO/c1-4(5)3-6-2/h4H,3H2,1-2H3

> <InChI Key_QSARr>
SIBFNWWZWOVJJH-UHFFFAOYSA-N

> <Salt_Solvent>
?

> <BP>
99.0

$$$$
104899
  -INDIGO-08031720192D

 28 28  0  0  0  0  0  0  0  0999 V2000
    0.0000    0.0000    0.0000 C   0  0  0  0  0  0  0  0  0  0  0  0
    1.6000    0.0000    0.0000 C   0  0  0  0  0  0  0  0  0  0  0  0
    2.4000    1.3857    0.0000 C   0  0  0  0  0  0  0  0  0  0  0  0
    1.6000    2.7713    0.0000 H   0  0  0  0  0  0  0  0  0  0  0  0
    4.0000    1.3857    0.0000 C   0  0  0  0  0  0  0  0  0  0  0  0
    4.8000    2.7713    0.0000 H   0  0  0  0  0  0  0  0  0  0  0  0
    4.8000    0.0000    0.0000 C   0  0  0  0  0  0  0  0  0  0  0  0
    6.4000    0.0000    0.0000 O   0  0  0  0  0  0  0  0  0  0  0  0
    7.2000    1.3857    0.0000 C   0  0  0  0  0  0  0  0  0  0  0  0
    8.8000    1.3857    0.0000 H   0  0  0  0  0  0  0  0  0  0  0  0
    8.0000    2.7713    0.0000 H   0  0  0  0  0  0  0  0  0  0  0  0
    8.0000    0.0000    0.0000 H   0  0  0  0  0  0  0  0  0  0  0  0
    4.0000   -1.3857    0.0000 C   0  0  0  0  0  0  0  0  0  0  0  0
    4.8000   -2.7713    0.0000 H   0  0  0  0  0  0  0  0  0  0  0  0
    2.4000   -1.3857    0.0000 C   0  0  0  0  0  0  0  0  0  0  0  0
    1.6000   -2.7713    0.0000 H   0  0  0  0  0  0  0  0  0  0  0  0
   -1.6000   -0.0000    0.0000 C   0  0  0  0  0  0  0  0  0  0  0  0
   -3.2000   -0.0000    0.0000 H   0  0  0  0  0  0  0  0  0  0  0  0
   -2.6285    1.2256    0.0000 H   0  0  0  0  0  0  0  0  0  0  0  0
   -2.6285   -1.2256    0.0000 H   0  0  0  0  0  0  0  0  0  0  0  0
    0.0000    1.6000    0.0000 C   0  0  0  0  0  0  0  0  0  0  0  0
    0.2778    3.1757    0.0000 H   0  0  0  0  0  0  0  0  0  0  0  0
   -1.2257    2.6285    0.0000 H   0  0  0  0  0  0  0  0  0  0  0  0
   -1.5035    1.0527    0.0000 H   0  0  0  0  0  0  0  0  0  0  0  0
    0.0000   -1.6000    0.0000 C   0  0  0  0  0  0  0  0  0  0  0  0
    0.2778   -3.1757    0.0000 H   0  0  0  0  0  0  0  0  0  0  0  0
   -1.2257   -2.6285    0.0000 H   0  0  0  0  0  0  0  0  0  0  0  0
   -1.5035   -1.0527    0.0000 H   0  0  0  0  0  0  0  0  0  0  0  0
  1  2  1  0  0  0  0
  2  3  1  0  0  0  0
  3  4  1  0  0  0  0
  3  5  2  0  0  0  0
  5  6  1  0  0  0  0
  5  7  1  0  0  0  0
  7  8  1  0  0  0  0
  8  9  1  0  0  0  0
  9 10  1  0  0  0  0
  9 11  1  0  0  0  0
  9 12  1  0  0  0  0
  7 13  2  0  0  0  0
 13 14  1  0  0  0  0
 13 15  1  0  0  0  0
 15  2  2  0  0  0  0
 15 16  1  0  0  0  0
  1 17  1  0  0  0  0
 17 18  1  0  0  0  0
 17 19  1  0  0  0  0
 17 20  1  0  0  0  0
  1 21  1  0  0  0  0
 21 22  1  0  0  0  0
 21 23  1  0  0  0  0
 21 24  1  0  0  0  0
  1 25  1  0  0  0  0
 25 26  1  0  0  0  0
 25 27  1  0  0  0  0
 25 28  1  0  0  0  0
M  END
> <ChemID>
104899

> <source_casrn>
5396-38-3

> <CAS>
5396-38-3

> <SMILES>
COc1ccc(cc1)C(C)(C)C

> <NAME>
Benzene, 1-(1,1-dimethylethyl)-4-methoxy-

> <preferred_name>
Benzene, 1-(1,1-dimethylethyl)-4-methoxy-

> <iupac>
1-tert-butyl-4-methoxybenzene

> <MPID>
23785

> <dsstox_substance_id>
DTXSID3063833

> <Canonical_QSARr>
COc1ccc(cc1)C(C)(C)C

> <InChI_Code_QSARr>
InChI=1S/C11H16O/c1-11(2,3)9-5-7-10(12-4)8-6-9/h5-8H,1-4H3

> <InChI Key_QSARr>
MCUPBIBNSTXCPQ-UHFFFAOYSA-N

> <Salt_Solvent>
?

> <BP>
238.0

$$$$
104903
  -INDIGO-08031720192D

 41 40  0  0  0  0  0  0  0  0999 V2000
   -2.4000    1.3857    0.0000 O   0  0  0  0  0  0  0  0  0  0  0  0
   -0.8001    1.3857    0.0000 C   0  0  0  0  0  0  0  0  0  0  0  0
    0.0001    2.7712    0.0000 O   0  0  0  0  0  0  0  0  0  0  0  0
    0.0001    0.0001    0.0000 C   0  0  0  0  0  0  0  0  0  0  0  0
    0.8000   -1.3857    0.0000 H   0  0  0  0  0  0  0  0  0  0  0  0
    1.5035    0.5472    0.0000 C   0  0  0  0  0  0  0  0  0  0  0  0
    1.1573    2.1092    0.0000 H   0  0  0  0  0  0  0  0  0  0  0  0
    2.3631    1.8967    0.0000 H   0  0  0  0  0  0  0  0  0  0  0  0
    2.7292   -0.4812    0.0000 C   0  0  0  0  0  0  0  0  0  0  0  0
    3.0754   -2.0433    0.0000 H   0  0  0  0  0  0  0  0  0  0  0  0
    1.8696   -1.8307    0.0000 H   0  0  0  0  0  0  0  0  0  0  0  0
    4.2326    0.0660    0.0000 C   0  0  0  0  0  0  0  0  0  0  0  0
    3.8864    1.6281    0.0000 H   0  0  0  0  0  0  0  0  0  0  0  0
    5.0924    1.4154    0.0000 H   0  0  0  0  0  0  0  0  0  0  0  0
    5.4583   -0.9625    0.0000 C   0  0  0  0  0  0  0  0  0  0  0  0
    5.8047   -2.5246    0.0000 H   0  0  0  0  0  0  0  0  0  0  0  0
    4.5987   -2.3118    0.0000 H   0  0  0  0  0  0  0  0  0  0  0  0
    6.9619   -0.4152    0.0000 C   0  0  0  0  0  0  0  0  0  0  0  0
    6.6155    1.1468    0.0000 H   0  0  0  0  0  0  0  0  0  0  0  0
    7.8216    0.9342    0.0000 H   0  0  0  0  0  0  0  0  0  0  0  0
    8.1876   -1.4436    0.0000 C   0  0  0  0  0  0  0  0  0  0  0  0
    9.4131   -2.4722    0.0000 H   0  0  0  0  0  0  0  0  0  0  0  0
    9.6910   -0.8965    0.0000 H   0  0  0  0  0  0  0  0  0  0  0  0
    7.9097   -3.0193    0.0000 H   0  0  0  0  0  0  0  0  0  0  0  0
   -1.3857   -0.8000    0.0000 C   0  0  0  0  0  0  0  0  0  0  0  0
   -1.3857   -2.4000    0.0000 O   0  0  0  0  0  0  0  0  0  0  0  0
   -2.7713   -3.2001    0.0000 C   0  0  0  0  0  0  0  0  0  0  0  0
   -4.3577   -2.9911    0.0000 H   0  0  0  0  0  0  0  0  0  0  0  0
   -3.7453   -1.9307    0.0000 H   0  0  0  0  0  0  0  0  0  0  0  0
   -2.7713   -4.8000    0.0000 C   0  0  0  0  0  0  0  0  0  0  0  0
   -2.7713   -6.4000    0.0000 H   0  0  0  0  0  0  0  0  0  0  0  0
   -4.1568   -5.5999    0.0000 H   0  0  0  0  0  0  0  0  0  0  0  0
   -1.3857   -5.5999    0.0000 H   0  0  0  0  0  0  0  0  0  0  0  0
   -2.7713    0.0001    0.0000 O   0  0  0  0  0  0  0  0  0  0  0  0
   -3.2000    2.7712    0.0000 C   0  0  0  0  0  0  0  0  0  0  0  0
   -1.9306    3.7453    0.0000 H   0  0  0  0  0  0  0  0  0  0  0  0
   -2.9913    4.3576    0.0000 H   0  0  0  0  0  0  0  0  0  0  0  0
   -4.8001    2.7712    0.0000 C   0  0  0  0  0  0  0  0  0  0  0  0
   -6.4000    2.7712    0.0000 H   0  0  0  0  0  0  0  0  0  0  0  0
   -5.6001    4.1570    0.0000 H   0  0  0  0  0  0  0  0  0  0  0  0
   -5.6001    1.3857    0.0000 H   0  0  0  0  0  0  0  0  0  0  0  0
  1  2  1  0  0  0  0
  2  3  2  0  0  0  0
  2  4  1  0  0  0  0
  4  5  1  0  0  0  0
  4  6  1  0  0  0  0
  6  7  1  0  0  0  0
  6  8  1  0  0  0  0
  6  9  1  0  0  0  0
  9 10  1  0  0  0  0
  9 11  1  0  0  0  0
  9 12  1  0  0  0  0
 12 13  1  0  0  0  0
 12 14  1  0  0  0  0
 12 15  1  0  0  0  0
 15 16  1  0  0  0  0
 15 17  1  0  0  0  0
 15 18  1  0  0  0  0
 18 19  1  0  0  0  0
 18 20  1  0  0  0  0
 18 21  1  0  0  0  0
 21 22  1  0  0  0  0
 21 23  1  0  0  0  0
 21 24  1  0  0  0  0
  4 25  1  0  0  0  0
 25 26  1  0  0  0  0
 26 27  1  0  0  0  0
 27 28  1  0  0  0  0
 27 29  1  0  0  0  0
 27 30  1  0  0  0  0
 30 31  1  0  0  0  0
 30 32  1  0  0  0  0
 30 33  1  0  0  0  0
 25 34  2  0  0  0  0
  1 35  1  0  0  0  0
 35 36  1  0  0  0  0
 35 37  1  0  0  0  0
 35 38  1  0  0  0  0
 38 39  1  0  0  0  0
 38 40  1  0  0  0  0
 38 41  1  0  0  0  0
M  END
> <ChemID>
104903

> <source_casrn>
5398-10-7

> <CAS>
5398-10-7

> <SMILES>
CCCCCCC(C(=O)OCC)C(=O)OCC

> <NAME>
PROPANEDIOIC ACID, HEXYL-, DIETHYL ESTER

> <preferred_name>
Diethyl hexylmalonate

> <iupac>
diethyl 2-hexylpropanedioate

> <MPID>
23789

> <dsstox_substance_id>
DTXSID80202282

> <Canonical_QSARr>
CCCCCCC(C(=O)OCC)C(=O)OCC

> <InChI_Code_QSARr>
InChI=1S/C13H24O4/c1-4-7-8-9-10-11(12(14)16-5-2)13(15)17-6-3/h11H,4-10H2,1-3H3

> <InChI Key_QSARr>
HSHMTDVEKPAEGS-UHFFFAOYSA-N

> <Salt_Solvent>
?

> <BP>
269.0

$$$$
104907
  -INDIGO-08031720192D

 30 31  0  0  0  0  0  0  0  0999 V2000
   -0.8000    1.3856    0.0000 N   0  0  0  0  0  0  0  0  0  0  0  0
   -0.0001    2.7713    0.0000 H   0  0  0  0  0  0  0  0  0  0  0  0
   -0.0001    0.0000    0.0000 C   0  0  0  0  0  0  0  0  0  0  0  0
   -0.2088   -1.5863    0.0000 H   0  0  0  0  0  0  0  0  0  0  0  0
   -1.2695   -0.9740    0.0000 H   0  0  0  0  0  0  0  0  0  0  0  0
    1.6001    0.0000    0.0000 C   0  0  0  0  0  0  0  0  0  0  0  0
    2.4000   -1.3856    0.0000 C   0  0  0  0  0  0  0  0  0  0  0  0
    1.6001   -2.7713    0.0000 H   0  0  0  0  0  0  0  0  0  0  0  0
    3.9999   -1.3856    0.0000 C   0  0  0  0  0  0  0  0  0  0  0  0
    4.8001   -2.7713    0.0000 H   0  0  0  0  0  0  0  0  0  0  0  0
    4.8001    0.0000    0.0000 C   0  0  0  0  0  0  0  0  0  0  0  0
    6.4000    0.0000    0.0000 H   0  0  0  0  0  0  0  0  0  0  0  0
    3.9999    1.3856    0.0000 C   0  0  0  0  0  0  0  0  0  0  0  0
    4.8001    2.7713    0.0000 H   0  0  0  0  0  0  0  0  0  0  0  0
    2.4000    1.3856    0.0000 C   0  0  0  0  0  0  0  0  0  0  0  0
    1.6001    2.7713    0.0000 H   0  0  0  0  0  0  0  0  0  0  0  0
   -2.3999    1.3856    0.0000 C   0  0  0  0  0  0  0  0  0  0  0  0
   -3.2001    2.7713    0.0000 C   0  0  0  0  0  0  0  0  0  0  0  0
   -2.3999    4.1569    0.0000 H   0  0  0  0  0  0  0  0  0  0  0  0
   -4.8000    2.7713    0.0000 C   0  0  0  0  0  0  0  0  0  0  0  0
   -5.6000    4.1569    0.0000 H   0  0  0  0  0  0  0  0  0  0  0  0
   -5.6000    1.3856    0.0000 C   0  0  0  0  0  0  0  0  0  0  0  0
   -7.2001    1.3856    0.0000 C   0  0  0  0  0  0  0  0  0  0  0  0
   -8.8000    1.3856    0.0000 H   0  0  0  0  0  0  0  0  0  0  0  0
   -8.0000    2.7713    0.0000 H   0  0  0  0  0  0  0  0  0  0  0  0
   -8.0000    0.0000    0.0000 H   0  0  0  0  0  0  0  0  0  0  0  0
   -4.8000    0.0000    0.0000 C   0  0  0  0  0  0  0  0  0  0  0  0
   -5.6000   -1.3856    0.0000 H   0  0  0  0  0  0  0  0  0  0  0  0
   -3.2001    0.0000    0.0000 C   0  0  0  0  0  0  0  0  0  0  0  0
   -2.3999   -1.3856    0.0000 H   0  0  0  0  0  0  0  0  0  0  0  0
  1  2  1  0  0  0  0
  1  3  1  0  0  0  0
  3  4  1  0  0  0  0
  3  5  1  0  0  0  0
  3  6  1  0  0  0  0
  6  7  1  0  0  0  0
  7  8  1  0  0  0  0
  7  9  2  0  0  0  0
  9 10  1  0  0  0  0
  9 11  1  0  0  0  0
 11 12  1  0  0  0  0
 11 13  2  0  0  0  0
 13 14  1  0  0  0  0
 13 15  1  0  0  0  0
 15  6  2  0  0  0  0
 15 16  1  0  0  0  0
  1 17  1  0  0  0  0
 17 18  1  0  0  0  0
 18 19  1  0  0  0  0
 18 20  2  0  0  0  0
 20 21  1  0  0  0  0
 20 22  1  0  0  0  0
 22 23  1  0  0  0  0
 23 24  1  0  0  0  0
 23 25  1  0  0  0  0
 23 26  1  0  0  0  0
 22 27  2  0  0  0  0
 27 28  1  0  0  0  0
 27 29  1  0  0  0  0
 29 17  2  0  0  0  0
 29 30  1  0  0  0  0
M  END
> <ChemID>
104907

> <source_casrn>
5405-15-2

> <CAS>
5405-15-2

> <SMILES>
Cc1ccc(cc1)NCc1ccccc1

> <NAME>
Benzyl-p-tolyl-amine

> <preferred_name>
N-Benzyl-4-toluidine

> <iupac>
4-methyl-N-(phenylmethyl)aniline

> <MPID>
23793

> <dsstox_substance_id>
DTXSID10202376

> <Canonical_QSARr>
Cc1ccc(cc1)NCc1ccccc1

> <InChI_Code_QSARr>
InChI=1S/C14H15N/c1-12-7-9-14(10-8-12)15-11-13-5-3-2-4-6-13/h2-10,15H,11H2,1H3

> <InChI Key_QSARr>
KEVOWRWHMCBERP-UHFFFAOYSA-N

> <Salt_Solvent>
?

> <BP>
319.0

$$$$
104911
  -INDIGO-08031720192D

 24 25  0  0  0  0  0  0  0  0999 V2000
   -1.0285    1.2257    0.0000 C   0  0  0  0  0  0  0  0  0  0  0  0
   -0.4813    2.7292    0.0000 O   0  0  0  0  0  0  0  0  0  0  0  0
    0.0000    0.0000    0.0000 C   0  0  0  0  0  0  0  0  0  0  0  0
   -1.3856   -0.8000    0.0000 H   0  0  0  0  0  0  0  0  0  0  0  0
    1.3856    0.8000    0.0000 C   0  0  0  0  0  0  0  0  0  0  0  0
    0.5856    2.1856    0.0000 H   0  0  0  0  0  0  0  0  0  0  0  0
    2.7712    1.6000    0.0000 H   0  0  0  0  0  0  0  0  0  0  0  0
    2.1857   -0.5856    0.0000 C   0  0  0  0  0  0  0  0  0  0  0  0
    3.5713    0.2144    0.0000 H   0  0  0  0  0  0  0  0  0  0  0  0
    2.9857   -1.9712    0.0000 H   0  0  0  0  0  0  0  0  0  0  0  0
    0.8000   -1.3857    0.0000 C   0  0  0  0  0  0  0  0  0  0  0  0
    1.6001   -2.7713    0.0000 H   0  0  0  0  0  0  0  0  0  0  0  0
   -0.5856   -2.1856    0.0000 H   0  0  0  0  0  0  0  0  0  0  0  0
   -2.6042    0.9478    0.0000 C   0  0  0  0  0  0  0  0  0  0  0  0
   -3.1514   -0.5556    0.0000 C   0  0  0  0  0  0  0  0  0  0  0  0
   -2.1229   -1.7813    0.0000 H   0  0  0  0  0  0  0  0  0  0  0  0
   -4.7270   -0.8335    0.0000 C   0  0  0  0  0  0  0  0  0  0  0  0
   -5.2743   -2.3371    0.0000 H   0  0  0  0  0  0  0  0  0  0  0  0
   -5.7556    0.3922    0.0000 C   0  0  0  0  0  0  0  0  0  0  0  0
   -7.3312    0.1143    0.0000 H   0  0  0  0  0  0  0  0  0  0  0  0
   -5.2083    1.8957    0.0000 C   0  0  0  0  0  0  0  0  0  0  0  0
   -6.2367    3.1214    0.0000 H   0  0  0  0  0  0  0  0  0  0  0  0
   -3.6327    2.1735    0.0000 C   0  0  0  0  0  0  0  0  0  0  0  0
   -3.0853    3.6770    0.0000 H   0  0  0  0  0  0  0  0  0  0  0  0
  1  2  2  0  0  0  0
  1  3  1  0  0  0  0
  3  4  1  0  0  0  0
  3  5  1  0  0  0  0
  5  6  1  0  0  0  0
  5  7  1  0  0  0  0
  5  8  1  0  0  0  0
  8  9  1  0  0  0  0
  8 10  1  0  0  0  0
  8 11  1  0  0  0  0
 11  3  1  0  0  0  0
 11 12  1  0  0  0  0
 11 13  1  0  0  0  0
  1 14  1  0  0  0  0
 14 15  1  0  0  0  0
 15 16  1  0  0  0  0
 15 17  2  0  0  0  0
 17 18  1  0  0  0  0
 17 19  1  0  0  0  0
 19 20  1  0  0  0  0
 19 21  2  0  0  0  0
 21 22  1  0  0  0  0
 21 23  1  0  0  0  0
 23 14  2  0  0  0  0
 23 24  1  0  0  0  0
M  END
> <ChemID>
104911

> <source_casrn>
5407-98-7

> <CAS>
5407-98-7

> <SMILES>
O=C(C1CCC1)c1ccccc1

> <NAME>
Cyclobutyl-phenyl-methanone

> <preferred_name>
Cyclobutyl phenyl ketone

> <iupac>
cyclobutyl(phenyl)methanone

> <MPID>
23797

> <dsstox_substance_id>
DTXSID1048201

> <Canonical_QSARr>
O=C(C1CCC1)c1ccccc1

> <InChI_Code_QSARr>
InChI=1S/C11H12O/c12-11(10-7-4-8-10)9-5-2-1-3-6-9/h1-3,5-6,10H,4,7-8H2

> <InChI Key_QSARr>
MVEBDOSCXOQNAR-UHFFFAOYSA-N

> <Salt_Solvent>
?

> <BP>
260.0

$$$$
104915
  -INDIGO-08031720192D

 23 24  0  0  0  0  0  0  0  0999 V2000
    1.1077    2.3757    0.0000 O   0  0  0  0  0  0  0  0  0  0  0  0
    1.3857    0.8000    0.0000 C   0  0  0  0  0  0  0  0  0  0  0  0
   -0.0001    0.0001    0.0000 C   0  0  0  0  0  0  0  0  0  0  0  0
   -0.0001   -1.6000    0.0000 C   0  0  0  0  0  0  0  0  0  0  0  0
    1.3857   -2.4000    0.0000 H   0  0  0  0  0  0  0  0  0  0  0  0
   -1.3857   -2.4000    0.0000 C   0  0  0  0  0  0  0  0  0  0  0  0
   -1.3857   -4.0000    0.0000 H   0  0  0  0  0  0  0  0  0  0  0  0
   -2.7713   -1.6000    0.0000 C   0  0  0  0  0  0  0  0  0  0  0  0
   -4.1569   -2.4000    0.0000 H   0  0  0  0  0  0  0  0  0  0  0  0
   -2.7713    0.0001    0.0000 C   0  0  0  0  0  0  0  0  0  0  0  0
   -4.1569    0.8000    0.0000 H   0  0  0  0  0  0  0  0  0  0  0  0
   -1.3857    0.8000    0.0000 C   0  0  0  0  0  0  0  0  0  0  0  0
   -1.3857    2.4000    0.0000 H   0  0  0  0  0  0  0  0  0  0  0  0
    2.9613    0.5222    0.0000 C   0  0  0  0  0  0  0  0  0  0  0  0
    3.9898    1.7479    0.0000 C   0  0  0  0  0  0  0  0  0  0  0  0
    3.4426    3.2513    0.0000 H   0  0  0  0  0  0  0  0  0  0  0  0
    5.5655    1.4700    0.0000 C   0  0  0  0  0  0  0  0  0  0  0  0
    6.5940    2.6957    0.0000 H   0  0  0  0  0  0  0  0  0  0  0  0
    6.1126   -0.0335    0.0000 C   0  0  0  0  0  0  0  0  0  0  0  0
    7.6884   -0.3113    0.0000 H   0  0  0  0  0  0  0  0  0  0  0  0
    5.0842   -1.2591    0.0000 N   0  0  0  0  0  0  0  0  0  0  0  0
    3.5086   -0.9813    0.0000 C   0  0  0  0  0  0  0  0  0  0  0  0
    2.4802   -2.2071    0.0000 H   0  0  0  0  0  0  0  0  0  0  0  0
  1  2  2  0  0  0  0
  2  3  1  0  0  0  0
  3  4  1  0  0  0  0
  4  5  1  0  0  0  0
  4  6  2  0  0  0  0
  6  7  1  0  0  0  0
  6  8  1  0  0  0  0
  8  9  1  0  0  0  0
  8 10  2  0  0  0  0
 10 11  1  0  0  0  0
 10 12  1  0  0  0  0
 12  3  2  0  0  0  0
 12 13  1  0  0  0  0
  2 14  1  0  0  0  0
 14 15  1  0  0  0  0
 15 16  1  0  0  0  0
 15 17  2  0  0  0  0
 17 18  1  0  0  0  0
 17 19  1  0  0  0  0
 19 20  1  0  0  0  0
 19 21  2  0  0  0  0
 21 22  1  0  0  0  0
 22 14  2  0  0  0  0
 22 23  1  0  0  0  0
M  END
> <ChemID>
104915

> <source_casrn>
5424-19-1

> <CAS>
5424-19-1

> <SMILES>
O=C(c1c[n]ccc1)c1ccccc1

> <NAME>
PHENYL-B-PYRIDYL KETONE

> <preferred_name>
3-Benzoylpyridine

> <iupac>
phenyl-pyridin-3-ylmethanone

> <MPID>
23801

> <dsstox_substance_id>
DTXSID90202591

> <Canonical_QSARr>
O=C(c1c[n]ccc1)c1ccccc1

> <InChI_Code_QSARr>
InChI=1S/C12H9NO/c14-12(10-5-2-1-3-6-10)11-7-4-8-13-9-11/h1-9H

> <InChI Key_QSARr>
RYMBAPVTUHZCNF-UHFFFAOYSA-N

> <Salt_Solvent>
?

> <BP>
307.0

$$$$
104919
  -INDIGO-08031720192D

 23 23  0  0  0  0  0  0  0  0999 V2000
   -4.8000   -0.0000    0.0000 O   0  0  0  0  0  0  0  0  0  0  0  0
   -3.1999   -0.0000    0.0000 C   0  0  0  0  0  0  0  0  0  0  0  0
   -2.4000    1.3857    0.0000 C   0  0  0  0  0  0  0  0  0  0  0  0
   -3.9036    1.9329    0.0000 H   0  0  0  0  0  0  0  0  0  0  0  0
   -2.1221    2.9613    0.0000 H   0  0  0  0  0  0  0  0  0  0  0  0
   -0.8000    1.3857    0.0000 C   0  0  0  0  0  0  0  0  0  0  0  0
   -1.0779    2.9613    0.0000 H   0  0  0  0  0  0  0  0  0  0  0  0
    0.7036    1.9329    0.0000 H   0  0  0  0  0  0  0  0  0  0  0  0
    0.0001    0.0000    0.0000 C   0  0  0  0  0  0  0  0  0  0  0  0
    1.2257    1.0285    0.0000 H   0  0  0  0  0  0  0  0  0  0  0  0
    1.2257   -1.0285    0.0000 C   0  0  0  0  0  0  0  0  0  0  0  0
    0.3660   -2.3779    0.0000 H   0  0  0  0  0  0  0  0  0  0  0  0
    1.5720   -2.5905    0.0000 H   0  0  0  0  0  0  0  0  0  0  0  0
    2.7292   -0.4812    0.0000 C   0  0  0  0  0  0  0  0  0  0  0  0
    4.2327    0.0660    0.0000 H   0  0  0  0  0  0  0  0  0  0  0  0
    3.9548   -1.5097    0.0000 H   0  0  0  0  0  0  0  0  0  0  0  0
    3.0070    1.0945    0.0000 H   0  0  0  0  0  0  0  0  0  0  0  0
   -0.8000   -1.3857    0.0000 C   0  0  0  0  0  0  0  0  0  0  0  0
    0.7756   -1.6635    0.0000 H   0  0  0  0  0  0  0  0  0  0  0  0
   -1.0779   -2.9613    0.0000 H   0  0  0  0  0  0  0  0  0  0  0  0
   -2.4000   -1.3857    0.0000 C   0  0  0  0  0  0  0  0  0  0  0  0
   -2.1221   -2.9613    0.0000 H   0  0  0  0  0  0  0  0  0  0  0  0
   -3.9036   -1.9329    0.0000 H   0  0  0  0  0  0  0  0  0  0  0  0
  1  2  2  0  0  0  0
  2  3  1  0  0  0  0
  3  4  1  0  0  0  0
  3  5  1  0  0  0  0
  3  6  1  0  0  0  0
  6  7  1  0  0  0  0
  6  8  1  0  0  0  0
  6  9  1  0  0  0  0
  9 10  1  0  0  0  0
  9 11  1  0  0  0  0
 11 12  1  0  0  0  0
 11 13  1  0  0  0  0
 11 14  1  0  0  0  0
 14 15  1  0  0  0  0
 14 16  1  0  0  0  0
 14 17  1  0  0  0  0
  9 18  1  0  0  0  0
 18 19  1  0  0  0  0
 18 20  1  0  0  0  0
 18 21  1  0  0  0  0
 21  2  1  0  0  0  0
 21 22  1  0  0  0  0
 21 23  1  0  0  0  0
M  END
> <ChemID>
104919

> <source_casrn>
5441-51-0

> <CAS>
5441-51-0

> <SMILES>
CCC1CCC(=O)CC1

> <NAME>
CYCLOHEXANONE, 4-ETHYL-

> <preferred_name>
4-Ethylcyclohexanone

> <iupac>
4-ethylcyclohexan-1-one

> <MPID>
23805

> <dsstox_substance_id>
DTXSID20202807

> <Canonical_QSARr>
CCC1CCC(=O)CC1

> <InChI_Code_QSARr>
InChI=1S/C8H14O/c1-2-7-3-5-8(9)6-4-7/h7H,2-6H2,1H3

> <InChI Key_QSARr>
OKSDJGWHKXFVME-UHFFFAOYSA-N

> <Salt_Solvent>
?

> <BP>
193.0

$$$$
104923
  -INDIGO-08031720192D

 41 40  0  0  0  0  0  0  0  0999 V2000
   -5.5426    0.0000    0.0000 O   0  0  0  0  0  0  0  0  0  0  0  0
   -4.1569    0.8000    0.0000 C   0  0  0  0  0  0  0  0  0  0  0  0
   -4.7693    2.2782    0.0000 H   0  0  0  0  0  0  0  0  0  0  0  0
   -3.5445    2.2782    0.0000 H   0  0  0  0  0  0  0  0  0  0  0  0
   -2.7713    0.0000    0.0000 C   0  0  0  0  0  0  0  0  0  0  0  0
   -2.1589   -1.4782    0.0000 H   0  0  0  0  0  0  0  0  0  0  0  0
   -3.3837   -1.4782    0.0000 H   0  0  0  0  0  0  0  0  0  0  0  0
   -1.3856    0.8000    0.0000 C   0  0  0  0  0  0  0  0  0  0  0  0
   -1.9981    2.2782    0.0000 H   0  0  0  0  0  0  0  0  0  0  0  0
   -0.7732    2.2782    0.0000 H   0  0  0  0  0  0  0  0  0  0  0  0
    0.0000    0.0000    0.0000 C   0  0  0  0  0  0  0  0  0  0  0  0
    0.6124   -1.4782    0.0000 H   0  0  0  0  0  0  0  0  0  0  0  0
   -0.6124   -1.4782    0.0000 H   0  0  0  0  0  0  0  0  0  0  0  0
    1.3856    0.8000    0.0000 C   0  0  0  0  0  0  0  0  0  0  0  0
    0.7732    2.2782    0.0000 H   0  0  0  0  0  0  0  0  0  0  0  0
    1.9981    2.2782    0.0000 H   0  0  0  0  0  0  0  0  0  0  0  0
    2.7713    0.0000    0.0000 C   0  0  0  0  0  0  0  0  0  0  0  0
    3.3837   -1.4782    0.0000 H   0  0  0  0  0  0  0  0  0  0  0  0
    2.1589   -1.4782    0.0000 H   0  0  0  0  0  0  0  0  0  0  0  0
    4.1569    0.8000    0.0000 C   0  0  0  0  0  0  0  0  0  0  0  0
    3.5445    2.2782    0.0000 H   0  0  0  0  0  0  0  0  0  0  0  0
    4.7693    2.2782    0.0000 H   0  0  0  0  0  0  0  0  0  0  0  0
    5.5426    0.0000    0.0000 C   0  0  0  0  0  0  0  0  0  0  0  0
    6.9282   -0.8000    0.0000 H   0  0  0  0  0  0  0  0  0  0  0  0
    6.9282    0.8000    0.0000 H   0  0  0  0  0  0  0  0  0  0  0  0
    5.5426   -1.6000    0.0000 H   0  0  0  0  0  0  0  0  0  0  0  0
   -6.9282    0.8000    0.0000 C   0  0  0  0  0  0  0  0  0  0  0  0
   -6.9282    2.4000    0.0000 O   0  0  0  0  0  0  0  0  0  0  0  0
   -8.3138    0.0000    0.0000 C   0  0  0  0  0  0  0  0  0  0  0  0
   -7.7014   -1.4782    0.0000 H   0  0  0  0  0  0  0  0  0  0  0  0
   -8.9263   -1.4782    0.0000 H   0  0  0  0  0  0  0  0  0  0  0  0
   -9.6995    0.8000    0.0000 C   0  0  0  0  0  0  0  0  0  0  0  0
  -10.3119    2.2782    0.0000 H   0  0  0  0  0  0  0  0  0  0  0  0
   -9.0871    2.2782    0.0000 H   0  0  0  0  0  0  0  0  0  0  0  0
  -11.0851    0.0000    0.0000 C   0  0  0  0  0  0  0  0  0  0  0  0
  -10.4727   -1.4782    0.0000 H   0  0  0  0  0  0  0  0  0  0  0  0
  -11.6975   -1.4782    0.0000 H   0  0  0  0  0  0  0  0  0  0  0  0
  -12.4708    0.8000    0.0000 C   0  0  0  0  0  0  0  0  0  0  0  0
  -13.8564    1.6000    0.0000 H   0  0  0  0  0  0  0  0  0  0  0  0
  -13.8564    0.0000    0.0000 H   0  0  0  0  0  0  0  0  0  0  0  0
  -12.4708    2.4000    0.0000 H   0  0  0  0  0  0  0  0  0  0  0  0
  1  2  1  0  0  0  0
  2  3  1  0  0  0  0
  2  4  1  0  0  0  0
  2  5  1  0  0  0  0
  5  6  1  0  0  0  0
  5  7  1  0  0  0  0
  5  8  1  0  0  0  0
  8  9  1  0  0  0  0
  8 10  1  0  0  0  0
  8 11  1  0  0  0  0
 11 12  1  0  0  0  0
 11 13  1  0  0  0  0
 11 14  1  0  0  0  0
 14 15  1  0  0  0  0
 14 16  1  0  0  0  0
 14 17  1  0  0  0  0
 17 18  1  0  0  0  0
 17 19  1  0  0  0  0
 17 20  1  0  0  0  0
 20 21  1  0  0  0  0
 20 22  1  0  0  0  0
 20 23  1  0  0  0  0
 23 24  1  0  0  0  0
 23 25  1  0  0  0  0
 23 26  1  0  0  0  0
  1 27  1  0  0  0  0
 27 28  2  0  0  0  0
 27 29  1  0  0  0  0
 29 30  1  0  0  0  0
 29 31  1  0  0  0  0
 29 32  1  0  0  0  0
 32 33  1  0  0  0  0
 32 34  1  0  0  0  0
 32 35  1  0  0  0  0
 35 36  1  0  0  0  0
 35 37  1  0  0  0  0
 35 38  1  0  0  0  0
 38 39  1  0  0  0  0
 38 40  1  0  0  0  0
 38 41  1  0  0  0  0
M  END
> <ChemID>
104923

> <source_casrn>
5451-85-4

> <CAS>
5451-85-4

> <SMILES>
CCCCC(=O)OCCCCCCCC

> <NAME>
Pentanoic acid octyl ester

> <preferred_name>
Octyl valerate

> <iupac>
octyl pentanoate

> <MPID>
23809

> <dsstox_substance_id>
DTXSID00202926

> <Canonical_QSARr>
CCCCC(=O)OCCCCCCCC

> <InChI_Code_QSARr>
InChI=1S/C13H26O2/c1-3-5-7-8-9-10-12-15-13(14)11-6-4-2/h3-12H2,1-2H3

> <InChI Key_QSARr>
OUYCCOBIJYUMAK-UHFFFAOYSA-N

> <Salt_Solvent>
?

> <BP>
261.6

$$$$
104928
  -INDIGO-08031720192D

 24 23  0  0  0  0  0  0  0  0999 V2000
    2.7712   -1.6000    0.0000 O   0  0  0  0  0  0  0  0  0  0  0  0
    2.7712    0.0000    0.0000 C   0  0  0  0  0  0  0  0  0  0  0  0
    4.1569    0.8000    0.0000 C   0  0  0  0  0  0  0  0  0  0  0  0
    4.7693    2.2782    0.0000 H   0  0  0  0  0  0  0  0  0  0  0  0
    3.5446    2.2782    0.0000 H   0  0  0  0  0  0  0  0  0  0  0  0
    5.5426    0.0000    0.0000 C   0  0  0  0  0  0  0  0  0  0  0  0
    4.9303   -1.4782    0.0000 H   0  0  0  0  0  0  0  0  0  0  0  0
    6.1548   -1.4782    0.0000 H   0  0  0  0  0  0  0  0  0  0  0  0
    6.9281    0.8000    0.0000 C   0  0  0  0  0  0  0  0  0  0  0  0
    8.3138    1.6000    0.0000 H   0  0  0  0  0  0  0  0  0  0  0  0
    8.3138    0.0000    0.0000 H   0  0  0  0  0  0  0  0  0  0  0  0
    6.9281    2.4000    0.0000 H   0  0  0  0  0  0  0  0  0  0  0  0
    1.3857    0.8000    0.0000 C   0  0  0  0  0  0  0  0  0  0  0  0
    1.3857    2.4000    0.0000 O   0  0  0  0  0  0  0  0  0  0  0  0
    0.0000    0.0000    0.0000 C   0  0  0  0  0  0  0  0  0  0  0  0
   -0.6124   -1.4782    0.0000 H   0  0  0  0  0  0  0  0  0  0  0  0
    0.6124   -1.4782    0.0000 H   0  0  0  0  0  0  0  0  0  0  0  0
   -1.3857    0.8000    0.0000 C   0  0  0  0  0  0  0  0  0  0  0  0
   -0.7733    2.2782    0.0000 H   0  0  0  0  0  0  0  0  0  0  0  0
   -1.9979    2.2782    0.0000 H   0  0  0  0  0  0  0  0  0  0  0  0
   -2.7712    0.0000    0.0000 C   0  0  0  0  0  0  0  0  0  0  0  0
   -4.1569   -0.8000    0.0000 H   0  0  0  0  0  0  0  0  0  0  0  0
   -4.1569    0.8000    0.0000 H   0  0  0  0  0  0  0  0  0  0  0  0
   -2.7712   -1.6000    0.0000 H   0  0  0  0  0  0  0  0  0  0  0  0
  1  2  2  0  0  0  0
  2  3  1  0  0  0  0
  3  4  1  0  0  0  0
  3  5  1  0  0  0  0
  3  6  1  0  0  0  0
  6  7  1  0  0  0  0
  6  8  1  0  0  0  0
  6  9  1  0  0  0  0
  9 10  1  0  0  0  0
  9 11  1  0  0  0  0
  9 12  1  0  0  0  0
  2 13  1  0  0  0  0
 13 14  2  0  0  0  0
 13 15  1  0  0  0  0
 15 16  1  0  0  0  0
 15 17  1  0  0  0  0
 15 18  1  0  0  0  0
 18 19  1  0  0  0  0
 18 20  1  0  0  0  0
 18 21  1  0  0  0  0
 21 22  1  0  0  0  0
 21 23  1  0  0  0  0
 21 24  1  0  0  0  0
M  END
> <ChemID>
104928

> <source_casrn>
5455-24-3

> <CAS>
5455-24-3

> <SMILES>
CCCC(=O)C(=O)CCC

> <NAME>
4,5-OCTANEDIONE

> <preferred_name>
4,5-Octanedione

> <iupac>
octane-4,5-dione

> <MPID>
23813

> <dsstox_substance_id>
DTXSID50202971

> <Canonical_QSARr>
CCCC(=O)C(=O)CCC

> <InChI_Code_QSARr>
InChI=1S/C8H14O2/c1-3-5-7(9)8(10)6-4-2/h3-6H2,1-2H3

> <InChI Key_QSARr>
XYZAPOXYXNIBEU-UHFFFAOYSA-N

> <Salt_Solvent>
?

> <BP>
168.0

$$$$
104932
  -INDIGO-08031720192D

 26 26  0  0  0  0  0  0  0  0999 V2000
    0.0001   -0.0000    0.0000 N   0  0  0  0  0  0  0  0  0  0  0  0
   -0.8001    1.3857    0.0000 C   0  0  0  0  0  0  0  0  0  0  0  0
    0.7035    1.9329    0.0000 H   0  0  0  0  0  0  0  0  0  0  0  0
   -1.0779    2.9613    0.0000 H   0  0  0  0  0  0  0  0  0  0  0  0
   -2.4000    1.3857    0.0000 C   0  0  0  0  0  0  0  0  0  0  0  0
   -2.1222    2.9613    0.0000 H   0  0  0  0  0  0  0  0  0  0  0  0
   -3.9035    1.9329    0.0000 H   0  0  0  0  0  0  0  0  0  0  0  0
   -3.2000   -0.0000    0.0000 C   0  0  0  0  0  0  0  0  0  0  0  0
   -4.4257    1.0285    0.0000 H   0  0  0  0  0  0  0  0  0  0  0  0
   -4.4257   -1.0285    0.0000 H   0  0  0  0  0  0  0  0  0  0  0  0
   -2.4000   -1.3857    0.0000 C   0  0  0  0  0  0  0  0  0  0  0  0
   -3.9035   -1.9329    0.0000 H   0  0  0  0  0  0  0  0  0  0  0  0
   -2.1222   -2.9613    0.0000 H   0  0  0  0  0  0  0  0  0  0  0  0
   -0.8001   -1.3857    0.0000 C   0  0  0  0  0  0  0  0  0  0  0  0
   -1.0779   -2.9613    0.0000 H   0  0  0  0  0  0  0  0  0  0  0  0
    0.7035   -1.9329    0.0000 H   0  0  0  0  0  0  0  0  0  0  0  0
    1.6000   -0.0000    0.0000 C   0  0  0  0  0  0  0  0  0  0  0  0
    2.8693   -0.9740    0.0000 H   0  0  0  0  0  0  0  0  0  0  0  0
    1.8088   -1.5863    0.0000 H   0  0  0  0  0  0  0  0  0  0  0  0
    2.6284    1.2257    0.0000 C   0  0  0  0  0  0  0  0  0  0  0  0
    1.5475    2.4054    0.0000 H   0  0  0  0  0  0  0  0  0  0  0  0
    2.6982    2.8241    0.0000 H   0  0  0  0  0  0  0  0  0  0  0  0
    4.2042    0.9478    0.0000 C   0  0  0  0  0  0  0  0  0  0  0  0
    5.7798    0.6700    0.0000 H   0  0  0  0  0  0  0  0  0  0  0  0
    5.2326    2.1735    0.0000 H   0  0  0  0  0  0  0  0  0  0  0  0
    4.7514   -0.5557    0.0000 H   0  0  0  0  0  0  0  0  0  0  0  0
  1  2  1  0  0  0  0
  2  3  1  0  0  0  0
  2  4  1  0  0  0  0
  2  5  1  0  0  0  0
  5  6  1  0  0  0  0
  5  7  1  0  0  0  0
  5  8  1  0  0  0  0
  8  9  1  0  0  0  0
  8 10  1  0  0  0  0
  8 11  1  0  0  0  0
 11 12  1  0  0  0  0
 11 13  1  0  0  0  0
 11 14  1  0  0  0  0
 14  1  1  0  0  0  0
 14 15  1  0  0  0  0
 14 16  1  0  0  0  0
  1 17  1  0  0  0  0
 17 18  1  0  0  0  0
 17 19  1  0  0  0  0
 17 20  1  0  0  0  0
 20 21  1  0  0  0  0
 20 22  1  0  0  0  0
 20 23  1  0  0  0  0
 23 24  1  0  0  0  0
 23 25  1  0  0  0  0
 23 26  1  0  0  0  0
M  END
> <ChemID>
104932

> <source_casrn>
5470-02-0

> <CAS>
5470-02-0

> <SMILES>
CCCN1CCCCC1

> <NAME>
1-PROPYLPIPERIDINE

> <preferred_name>
Piperidine, 1-propyl-

> <iupac>
1-Propylpiperidine

> <MPID>
23817

> <dsstox_substance_id>
DTXSID80203158

> <Canonical_QSARr>
CCCN1CCCCC1

> <InChI_Code_QSARr>
InChI=1S/C8H17N/c1-2-6-9-7-4-3-5-8-9/h2-8H2,1H3

> <InChI Key_QSARr>
VTDIWMPYBAVEDY-UHFFFAOYSA-N

> <Salt_Solvent>
?

> <BP>
151.5

$$$$
104938
  -INDIGO-08031720192D

 15 14  0  0  0  0  0  0  0  0999 V2000
    0.0000    0.0000    0.0000 C   0  0  0  0  0  0  0  0  0  0  0  0
    0.6122   -1.4782    0.0000 H   0  0  0  0  0  0  0  0  0  0  0  0
   -0.6122   -1.4782    0.0000 H   0  0  0  0  0  0  0  0  0  0  0  0
    1.3856    0.8000    0.0000 C   0  0  0  0  0  0  0  0  0  0  0  0
    2.7713    1.6000    0.0000 H   0  0  0  0  0  0  0  0  0  0  0  0
    2.7713    0.0000    0.0000 H   0  0  0  0  0  0  0  0  0  0  0  0
    1.3856    2.4000    0.0000 H   0  0  0  0  0  0  0  0  0  0  0  0
   -1.3857    0.8000    0.0000 B   0  0  0  0  0  0  0  0  0  0  0  0
   -2.7713    0.0000    0.0000 C   0  0  0  0  0  0  0  0  0  0  0  0
   -2.1590   -1.4782    0.0000 H   0  0  0  0  0  0  0  0  0  0  0  0
   -3.3835   -1.4782    0.0000 H   0  0  0  0  0  0  0  0  0  0  0  0
   -4.1569    0.8000    0.0000 C   0  0  0  0  0  0  0  0  0  0  0  0
   -5.5426    1.6000    0.0000 H   0  0  0  0  0  0  0  0  0  0  0  0
   -5.5426    0.0000    0.0000 H   0  0  0  0  0  0  0  0  0  0  0  0
   -4.1569    2.4000    0.0000 H   0  0  0  0  0  0  0  0  0  0  0  0
  1  2  1  0  0  0  0
  1  3  1  0  0  0  0
  1  4  1  0  0  0  0
  4  5  1  0  0  0  0
  4  6  1  0  0  0  0
  4  7  1  0  0  0  0
  1  8  1  0  0  0  0
  8  9  1  0  0  0  0
  9 10  1  0  0  0  0
  9 11  1  0  0  0  0
  9 12  1  0  0  0  0
 12 13  1  0  0  0  0
 12 14  1  0  0  0  0
 12 15  1  0  0  0  0
M  END
> <ChemID>
104938

> <source_casrn>
5518-25-2

> <CAS>
5518-25-2

> <SMILES>
CC[B]CC |^1:2|

> <NAME>
DIETHYLBORANE

> <preferred_name>
Diethylboron

> <iupac>
C4H10B

> <MPID>
23822

> <dsstox_substance_id>
DTXSID90431001

> <Canonical_QSARr>
CCBCC

> <InChI_Code_QSARr>
InChI=1S/C4H11B/c1-3-5-4-2/h5H,3-4H2,1-2H3

> <InChI Key_QSARr>
FAFYLCKQPJOORN-UHFFFAOYSA-N

> <Salt_Solvent>
?

> <BP>
112.0

$$$$
104942
  -INDIGO-08031720192D

  8  7  0  0  0  0  0  0  0  0999 V2000
   -2.4000   -1.3856    0.0000 O   0  0  0  0  0  0  0  0  0  0  0  0
   -1.6000    0.0000    0.0000 C   0  0  0  0  0  0  0  0  0  0  0  0
    0.0000    0.0000    0.0000 C   0  0  0  0  0  0  0  0  0  0  0  0
    1.6000    0.0000    0.0000 H   0  0  0  0  0  0  0  0  0  0  0  0
    0.8000    1.3856    0.0000 Cl  0  0  0  0  0  0  0  0  0  0  0  0
    0.8000   -1.3856    0.0000 Br  0  0  0  0  0  0  0  0  0  0  0  0
   -2.4000    1.3856    0.0000 O   0  0  0  0  0  0  0  0  0  0  0  0
   -4.0000    1.3856    0.0000 H   0  0  0  0  0  0  0  0  0  0  0  0
  1  2  2  0  0  0  0
  2  3  1  0  0  0  0
  3  4  1  0  0  0  0
  3  5  1  0  0  0  0
  3  6  1  0  0  0  0
  2  7  1  0  0  0  0
  7  8  1  0  0  0  0
M  END
> <ChemID>
104942

> <source_casrn>
5589-96-8

> <CAS>
5589-96-8

> <SMILES>
OC(=O)C(Cl)Br

> <NAME>
DL-BROMOCHLOROACETIC ACID

> <preferred_name>
Bromochloroacetic acid

> <iupac>
bromo(chloro)acetic acid

> <MPID>
23826

> <dsstox_substance_id>
DTXSID4024642

> <Canonical_QSARr>
OC(=O)C(Cl)Br

> <InChI_Code_QSARr>
InChI=1S/C2H2BrClO2/c3-1(4)2(5)6/h1H,(H,5,6)

> <InChI Key_QSARr>
GEHJBWKLJVFKPS-UHFFFAOYSA-N

> <Salt_Solvent>
?

> <BP>
215.0

$$$$
104946
  -INDIGO-08031720192D

 20 19  0  0  0  0  0  0  0  0999 V2000
   -1.3856    0.8000    0.0000 N   0  0  0  0  0  0  0  0  0  0  0  0
   -1.3857    2.4000    0.0000 H   0  0  0  0  0  0  0  0  0  0  0  0
   -2.7712    0.0000    0.0000 C   0  0  0  0  0  0  0  0  0  0  0  0
   -2.1591   -1.4782    0.0000 H   0  0  0  0  0  0  0  0  0  0  0  0
   -3.3835   -1.4782    0.0000 H   0  0  0  0  0  0  0  0  0  0  0  0
   -4.1569    0.8000    0.0000 C   0  0  0  0  0  0  0  0  0  0  0  0
   -4.1569    2.4000    0.0000 H   0  0  0  0  0  0  0  0  0  0  0  0
   -5.5425    0.0000    0.0000 C   0  0  0  0  0  0  0  0  0  0  0  0
   -6.9282    0.8000    0.0000 H   0  0  0  0  0  0  0  0  0  0  0  0
   -5.5425   -1.6000    0.0000 H   0  0  0  0  0  0  0  0  0  0  0  0
   -0.0001    0.0000    0.0000 C   0  0  0  0  0  0  0  0  0  0  0  0
    0.6123   -1.4782    0.0000 H   0  0  0  0  0  0  0  0  0  0  0  0
   -0.6122   -1.4782    0.0000 H   0  0  0  0  0  0  0  0  0  0  0  0
    1.3856    0.8000    0.0000 C   0  0  0  0  0  0  0  0  0  0  0  0
    0.7733    2.2782    0.0000 H   0  0  0  0  0  0  0  0  0  0  0  0
    1.9979    2.2782    0.0000 H   0  0  0  0  0  0  0  0  0  0  0  0
    2.7713    0.0000    0.0000 C   0  0  0  0  0  0  0  0  0  0  0  0
    4.1569   -0.8000    0.0000 H   0  0  0  0  0  0  0  0  0  0  0  0
    4.1569    0.8000    0.0000 H   0  0  0  0  0  0  0  0  0  0  0  0
    2.7713   -1.6000    0.0000 H   0  0  0  0  0  0  0  0  0  0  0  0
  1  2  1  0  0  0  0
  1  3  1  0  0  0  0
  3  4  1  0  0  0  0
  3  5  1  0  0  0  0
  3  6  1  0  0  0  0
  6  7  1  0  0  0  0
  6  8  2  0  0  0  0
  8  9  1  0  0  0  0
  8 10  1  0  0  0  0
  1 11  1  0  0  0  0
 11 12  1  0  0  0  0
 11 13  1  0  0  0  0
 11 14  1  0  0  0  0
 14 15  1  0  0  0  0
 14 16  1  0  0  0  0
 14 17  1  0  0  0  0
 17 18  1  0  0  0  0
 17 19  1  0  0  0  0
 17 20  1  0  0  0  0
M  END
> <ChemID>
104946

> <source_casrn>
5666-21-7

> <CAS>
34825-70-2

> <SMILES>
CCCNCC=C

> <NAME>
ALLYLPROPYLAMINE

> <preferred_name>


> <iupac>


> <MPID>
23830

> <dsstox_substance_id>
DTXSID40336451

> <Canonical_QSARr>
CCCNCC=C

> <InChI_Code_QSARr>
InChI=1S/C6H13N/c1-3-5-7-6-4-2/h3,7H,1,4-6H2,2H3

> <InChI Key_QSARr>
HUEPADWXXGLLSW-UHFFFAOYSA-N

> <Salt_Solvent>
?

> <BP>
112.0

$$$$
104950
  -INDIGO-08031720192D

 19 19  0  0  0  0  0  0  0  0999 V2000
   -2.4000    1.3856    0.0000 N   0  0  0  0  0  0  0  0  0  0  0  0
   -1.6000    0.0000    0.0000 C   0  0  0  0  0  0  0  0  0  0  0  0
    0.0000   -0.0000    0.0000 N   0  0  0  0  0  0  0  0  0  0  0  0
    0.8001    1.3856    0.0000 C   0  0  0  0  0  0  0  0  0  0  0  0
    1.6000    2.7713    0.0000 H   0  0  0  0  0  0  0  0  0  0  0  0
    2.4000    1.3856    0.0000 H   0  0  0  0  0  0  0  0  0  0  0  0
    0.0000    2.7713    0.0000 H   0  0  0  0  0  0  0  0  0  0  0  0
    0.8001   -1.3856    0.0000 C   0  0  0  0  0  0  0  0  0  0  0  0
    1.6000   -2.7713    0.0000 H   0  0  0  0  0  0  0  0  0  0  0  0
    2.4000   -1.3856    0.0000 H   0  0  0  0  0  0  0  0  0  0  0  0
    0.0000   -2.7713    0.0000 H   0  0  0  0  0  0  0  0  0  0  0  0
   -2.4000   -1.3856    0.0000 C   0  0  0  0  0  0  0  0  0  0  0  0
   -1.6000   -2.7713    0.0000 H   0  0  0  0  0  0  0  0  0  0  0  0
   -4.0000   -1.3856    0.0000 C   0  0  0  0  0  0  0  0  0  0  0  0
   -4.8001   -2.7713    0.0000 H   0  0  0  0  0  0  0  0  0  0  0  0
   -4.8001    0.0000    0.0000 C   0  0  0  0  0  0  0  0  0  0  0  0
   -6.4000    0.0000    0.0000 H   0  0  0  0  0  0  0  0  0  0  0  0
   -4.0000    1.3856    0.0000 C   0  0  0  0  0  0  0  0  0  0  0  0
   -4.8001    2.7713    0.0000 H   0  0  0  0  0  0  0  0  0  0  0  0
  1  2  1  0  0  0  0
  2  3  1  0  0  0  0
  3  4  1  0  0  0  0
  4  5  1  0  0  0  0
  4  6  1  0  0  0  0
  4  7  1  0  0  0  0
  3  8  1  0  0  0  0
  8  9  1  0  0  0  0
  8 10  1  0  0  0  0
  8 11  1  0  0  0  0
  2 12  2  0  0  0  0
 12 13  1  0  0  0  0
 12 14  1  0  0  0  0
 14 15  1  0  0  0  0
 14 16  2  0  0  0  0
 16 17  1  0  0  0  0
 16 18  1  0  0  0  0
 18  1  2  0  0  0  0
 18 19  1  0  0  0  0
M  END
> <ChemID>
104950

> <source_casrn>
5683-33-0

> <CAS>
5683-33-0

> <SMILES>
CN(C)c1cccc[n]1

> <NAME>
2-DIMETHYLAMINOPYRIDINE

> <preferred_name>
2-Dimethylaminopyridine

> <iupac>
N,N-dimethylpyridin-2-amine

> <MPID>
23834

> <dsstox_substance_id>
DTXSID9022231

> <Canonical_QSARr>
CN(C)c1cccc[n]1

> <InChI_Code_QSARr>
InChI=1S/C7H10N2/c1-9(2)7-5-3-4-6-8-7/h3-6H,1-2H3

> <InChI Key_QSARr>
PSHKMPUSSFXUIA-UHFFFAOYSA-N

> <Salt_Solvent>
?

> <BP>
196.0

$$$$
104954
  -INDIGO-08031720192D

 25 25  0  0  0  0  0  0  0  0999 V2000
    2.7713   -0.0000    0.0000 C   0  0  0  0  0  0  0  0  0  0  0  0
    3.3185    1.5035    0.0000 H   0  0  0  0  0  0  0  0  0  0  0  0
    1.3857    0.8000    0.0000 C   0  0  0  0  0  0  0  0  0  0  0  0
    2.4141    2.0257    0.0000 H   0  0  0  0  0  0  0  0  0  0  0  0
    0.3572    2.0257    0.0000 H   0  0  0  0  0  0  0  0  0  0  0  0
   -0.0001   -0.0000    0.0000 C   0  0  0  0  0  0  0  0  0  0  0  0
   -1.5756   -0.2778    0.0000 H   0  0  0  0  0  0  0  0  0  0  0  0
   -1.0284    1.2256    0.0000 C   0  0  0  0  0  0  0  0  0  0  0  0
   -2.0570    2.4513    0.0000 H   0  0  0  0  0  0  0  0  0  0  0  0
   -2.6042    0.9479    0.0000 H   0  0  0  0  0  0  0  0  0  0  0  0
   -0.4813    2.7292    0.0000 H   0  0  0  0  0  0  0  0  0  0  0  0
   -0.0001   -1.6000    0.0000 C   0  0  0  0  0  0  0  0  0  0  0  0
   -1.5756   -1.3222    0.0000 H   0  0  0  0  0  0  0  0  0  0  0  0
   -1.0284   -2.8256    0.0000 C   0  0  0  0  0  0  0  0  0  0  0  0
   -2.0570   -4.0513    0.0000 H   0  0  0  0  0  0  0  0  0  0  0  0
   -2.6042   -2.5479    0.0000 H   0  0  0  0  0  0  0  0  0  0  0  0
   -0.4813   -4.3292    0.0000 H   0  0  0  0  0  0  0  0  0  0  0  0
    1.3857   -2.4000    0.0000 C   0  0  0  0  0  0  0  0  0  0  0  0
    0.3572   -3.6257    0.0000 H   0  0  0  0  0  0  0  0  0  0  0  0
    2.4141   -3.6257    0.0000 H   0  0  0  0  0  0  0  0  0  0  0  0
    2.7713   -1.6000    0.0000 C   0  0  0  0  0  0  0  0  0  0  0  0
    3.3185   -3.1035    0.0000 H   0  0  0  0  0  0  0  0  0  0  0  0
    4.3469   -1.3222    0.0000 H   0  0  0  0  0  0  0  0  0  0  0  0
    4.3469   -0.2778    0.0000 O   0  0  0  0  0  0  0  0  0  0  0  0
    5.3754    0.9479    0.0000 H   0  0  0  0  0  0  0  0  0  0  0  0
  1  2  1  0  0  0  0
  1  3  1  0  0  0  0
  3  4  1  0  0  0  0
  3  5  1  0  0  0  0
  3  6  1  0  0  0  0
  6  7  1  0  0  0  0
  6  8  1  0  0  0  0
  8  9  1  0  0  0  0
  8 10  1  0  0  0  0
  8 11  1  0  0  0  0
  6 12  1  0  0  0  0
 12 13  1  0  0  0  0
 12 14  1  0  0  0  0
 14 15  1  0  0  0  0
 14 16  1  0  0  0  0
 14 17  1  0  0  0  0
 12 18  1  0  0  0  0
 18 19  1  0  0  0  0
 18 20  1  0  0  0  0
 18 21  1  0  0  0  0
 21  1  1  0  0  0  0
 21 22  1  0  0  0  0
 21 23  1  0  0  0  0
  1 24  1  0  0  0  0
 24 25  1  0  0  0  0
M  END
> <ChemID>
104954

> <source_casrn>
5715-23-1

> <CAS>
NOCAS_871143

> <SMILES>
CC1CC(O)CCC1C

> <NAME>
3,4-Dimethyl-cyclohexanol

> <preferred_name>


> <iupac>


> <MPID>
23838

> <dsstox_substance_id>
DTXSID70871143

> <Canonical_QSARr>
CC1CC(O)CCC1C

> <InChI_Code_QSARr>
InChI=1S/C8H16O/c1-6-3-4-8(9)5-7(6)2/h6-9H,3-5H2,1-2H3

> <InChI Key_QSARr>
ZBAXJUPCYVIBSP-UHFFFAOYSA-N

> <Salt_Solvent>
?

> <BP>
189.0

$$$$
104959
  -INDIGO-08031720192D

 10  9  0  0  0  0  0  0  0  0999 V2000
   -2.7713    1.6000    0.0000 O   0  0  0  0  0  0  0  0  0  0  0  0
   -2.7713    0.0000    0.0000 C   0  0  0  0  0  0  0  0  0  0  0  0
   -1.3856   -0.8000    0.0000 O   0  0  0  0  0  0  0  0  0  0  0  0
    0.0000    0.0000    0.0000 C   0  0  0  0  0  0  0  0  0  0  0  0
    1.3856    0.8000    0.0000 H   0  0  0  0  0  0  0  0  0  0  0  0
    0.0000    1.6000    0.0000 H   0  0  0  0  0  0  0  0  0  0  0  0
    1.3856   -0.8000    0.0000 H   0  0  0  0  0  0  0  0  0  0  0  0
   -4.1569   -0.8000    0.0000 C   0  0  0  0  0  0  0  0  0  0  0  0
   -5.5426    0.0000    0.0000 O   0  0  0  0  0  0  0  0  0  0  0  0
   -4.1569   -2.4000    0.0000 Cl  0  0  0  0  0  0  0  0  0  0  0  0
  1  2  2  0  0  0  0
  2  3  1  0  0  0  0
  3  4  1  0  0  0  0
  4  5  1  0  0  0  0
  4  6  1  0  0  0  0
  4  7  1  0  0  0  0
  2  8  1  0  0  0  0
  8  9  2  0  0  0  0
  8 10  1  0  0  0  0
M  END
> <ChemID>
104959

> <source_casrn>
5781-53-3

> <CAS>
5781-53-3

> <SMILES>
COC(=O)C(=O)Cl

> <NAME>
Acetic acid, chlorooxo-, methyl ester

> <preferred_name>
Acetic acid, chlorooxo-, methyl ester

> <iupac>
methyl 2-chloro-2-oxoacetate

> <MPID>
23842

> <dsstox_substance_id>
DTXSID9064003

> <Canonical_QSARr>
COC(=O)C(=O)Cl

> <InChI_Code_QSARr>
InChI=1S/C3H3ClO3/c1-7-3(6)2(4)5/h1H3

> <InChI Key_QSARr>
ZXUQEPZWVQIOJE-UHFFFAOYSA-N

> <Salt_Solvent>
?

> <BP>
119.0

$$$$
104964
  -INDIGO-08031720192D

 31 32  0  0  0  0  0  0  0  0999 V2000
    0.0001    0.0000    0.0000 C   0  0  0  0  0  0  0  0  0  0  0  0
    0.8001   -1.3856    0.0000 H   0  0  0  0  0  0  0  0  0  0  0  0
    1.3856    0.8000    0.0000 C   0  0  0  0  0  0  0  0  0  0  0  0
    1.0392    2.3621    0.0000 H   0  0  0  0  0  0  0  0  0  0  0  0
    1.9979    2.2782    0.0000 H   0  0  0  0  0  0  0  0  0  0  0  0
    2.7713    0.0000    0.0000 C   0  0  0  0  0  0  0  0  0  0  0  0
    2.7713   -1.6000    0.0000 C   0  0  0  0  0  0  0  0  0  0  0  0
    1.3856   -2.4000    0.0000 H   0  0  0  0  0  0  0  0  0  0  0  0
    4.1570   -2.4000    0.0000 C   0  0  0  0  0  0  0  0  0  0  0  0
    4.1570   -4.0000    0.0000 H   0  0  0  0  0  0  0  0  0  0  0  0
    5.5425   -1.6000    0.0000 C   0  0  0  0  0  0  0  0  0  0  0  0
    6.9282   -2.4000    0.0000 H   0  0  0  0  0  0  0  0  0  0  0  0
    5.5425    0.0000    0.0000 C   0  0  0  0  0  0  0  0  0  0  0  0
    6.9282    0.8000    0.0000 H   0  0  0  0  0  0  0  0  0  0  0  0
    4.1570    0.8000    0.0000 C   0  0  0  0  0  0  0  0  0  0  0  0
    4.1570    2.4000    0.0000 H   0  0  0  0  0  0  0  0  0  0  0  0
   -1.0285    1.2256    0.0000 C   0  0  0  0  0  0  0  0  0  0  0  0
   -0.4812    2.7292    0.0000 H   0  0  0  0  0  0  0  0  0  0  0  0
   -2.0570    2.4514    0.0000 H   0  0  0  0  0  0  0  0  0  0  0  0
    0.5472    1.5036    0.0000 H   0  0  0  0  0  0  0  0  0  0  0  0
   -1.3856   -0.7999    0.0000 C   0  0  0  0  0  0  0  0  0  0  0  0
   -2.7713    0.0000    0.0000 C   0  0  0  0  0  0  0  0  0  0  0  0
   -2.7713    1.5999    0.0000 H   0  0  0  0  0  0  0  0  0  0  0  0
   -4.1569   -0.7999    0.0000 C   0  0  0  0  0  0  0  0  0  0  0  0
   -5.5426    0.0000    0.0000 H   0  0  0  0  0  0  0  0  0  0  0  0
   -4.1569   -2.4000    0.0000 C   0  0  0  0  0  0  0  0  0  0  0  0
   -5.5426   -3.2000    0.0000 H   0  0  0  0  0  0  0  0  0  0  0  0
   -2.7713   -3.2000    0.0000 C   0  0  0  0  0  0  0  0  0  0  0  0
   -2.7713   -4.8000    0.0000 H   0  0  0  0  0  0  0  0  0  0  0  0
   -1.3856   -2.4000    0.0000 C   0  0  0  0  0  0  0  0  0  0  0  0
    0.0001   -3.2000    0.0000 H   0  0  0  0  0  0  0  0  0  0  0  0
  1  2  1  0  0  0  0
  1  3  1  0  0  0  0
  3  4  1  0  0  0  0
  3  5  1  0  0  0  0
  3  6  1  0  0  0  0
  6  7  1  0  0  0  0
  7  8  1  0  0  0  0
  7  9  2  0  0  0  0
  9 10  1  0  0  0  0
  9 11  1  0  0  0  0
 11 12  1  0  0  0  0
 11 13  2  0  0  0  0
 13 14  1  0  0  0  0
 13 15  1  0  0  0  0
 15  6  2  0  0  0  0
 15 16  1  0  0  0  0
  1 17  1  0  0  0  0
 17 18  1  0  0  0  0
 17 19  1  0  0  0  0
 17 20  1  0  0  0  0
  1 21  1  0  0  0  0
 21 22  1  0  0  0  0
 22 23  1  0  0  0  0
 22 24  2  0  0  0  0
 24 25  1  0  0  0  0
 24 26  1  0  0  0  0
 26 27  1  0  0  0  0
 26 28  2  0  0  0  0
 28 29  1  0  0  0  0
 28 30  1  0  0  0  0
 30 21  2  0  0  0  0
 30 31  1  0  0  0  0
M  END
> <ChemID>
104964

> <source_casrn>
5814-85-7

> <CAS>
5814-85-7

> <SMILES>
CC(Cc1ccccc1)c1ccccc1

> <NAME>
1-METHYL-1,2-DIPHENYLETHANE

> <preferred_name>


> <iupac>


> <MPID>
23847

> <dsstox_substance_id>
DTXSID70871148

> <Canonical_QSARr>
CC(Cc1ccccc1)c1ccccc1

> <InChI_Code_QSARr>
InChI=1S/C15H16/c1-13(15-10-6-3-7-11-15)12-14-8-4-2-5-9-14/h2-11,13H,12H2,1H3

> <InChI Key_QSARr>
XLWCIHPMASUXPI-UHFFFAOYSA-N

> <Salt_Solvent>
?

> <BP>
280.5

$$$$
104968
  -INDIGO-08031720192D

  6  5  0  0  0  0  0  0  0  0999 V2000
   -0.8000   -1.3856    0.0000 Br  0  0  0  0  0  0  0  0  0  0  0  0
    0.0000    0.0000    0.0000 C   0  0  0  0  0  0  0  0  0  0  0  0
   -0.8000    1.3856    0.0000 H   0  0  0  0  0  0  0  0  0  0  0  0
    1.6000    0.0000    0.0000 C   0  0  0  0  0  0  0  0  0  0  0  0
    2.4000    1.3856    0.0000 Cl  0  0  0  0  0  0  0  0  0  0  0  0
    2.4000   -1.3856    0.0000 Cl  0  0  0  0  0  0  0  0  0  0  0  0
  1  2  1  0  0  0  0
  2  3  1  0  0  0  0
  2  4  2  0  0  0  0
  4  5  1  0  0  0  0
  4  6  1  0  0  0  0
M  END
> <ChemID>
104968

> <source_casrn>
5870-61-1

> <CAS>
5870-61-1

> <SMILES>
ClC(Cl)=CBr

> <NAME>
2-Bromo-1,1-dichloro-ethene

> <preferred_name>
2-Bromo-1,1-dichloroethylene

> <iupac>
2-bromo-1,1-dichloroethene

> <MPID>
23851

> <dsstox_substance_id>
DTXSID50207401

> <Canonical_QSARr>
ClC(Cl)=CBr

> <InChI_Code_QSARr>
InChI=1S/C2HBrCl2/c3-1-2(4)5/h1H

> <InChI Key_QSARr>
OEKZZIRTAIOPIP-UHFFFAOYSA-N

> <Salt_Solvent>
?

> <BP>
107.5

$$$$
104972
  -INDIGO-08031720192D

 28 29  0  0  0  0  0  0  0  0999 V2000
    4.1568    0.8000    0.0000 N   0  0  0  0  0  0  0  0  0  0  0  0
    5.5426    0.0000    0.0000 C   0  0  0  0  0  0  0  0  0  0  0  0
    5.5426   -1.6000    0.0000 H   0  0  0  0  0  0  0  0  0  0  0  0
    6.9283    0.8000    0.0000 C   0  0  0  0  0  0  0  0  0  0  0  0
    6.9283    2.4000    0.0000 C   0  0  0  0  0  0  0  0  0  0  0  0
    5.5426    3.2001    0.0000 H   0  0  0  0  0  0  0  0  0  0  0  0
    8.3138    3.2001    0.0000 C   0  0  0  0  0  0  0  0  0  0  0  0
    8.3138    4.8000    0.0000 H   0  0  0  0  0  0  0  0  0  0  0  0
    9.6996    2.4000    0.0000 C   0  0  0  0  0  0  0  0  0  0  0  0
   11.0851    3.2001    0.0000 H   0  0  0  0  0  0  0  0  0  0  0  0
    9.6996    0.8000    0.0000 C   0  0  0  0  0  0  0  0  0  0  0  0
   11.0851    0.0000    0.0000 H   0  0  0  0  0  0  0  0  0  0  0  0
    8.3138    0.0000    0.0000 C   0  0  0  0  0  0  0  0  0  0  0  0
    8.3138   -1.6000    0.0000 H   0  0  0  0  0  0  0  0  0  0  0  0
    2.7713    0.0000    0.0000 C   0  0  0  0  0  0  0  0  0  0  0  0
    2.7713   -1.6000    0.0000 C   0  0  0  0  0  0  0  0  0  0  0  0
    4.1570   -2.4001    0.0000 H   0  0  0  0  0  0  0  0  0  0  0  0
    1.3855   -2.4001    0.0000 C   0  0  0  0  0  0  0  0  0  0  0  0
    1.3857   -4.0000    0.0000 H   0  0  0  0  0  0  0  0  0  0  0  0
    0.0000   -1.6000    0.0000 C   0  0  0  0  0  0  0  0  0  0  0  0
   -1.3855   -2.4001    0.0000 H   0  0  0  0  0  0  0  0  0  0  0  0
    0.0000    0.0000    0.0000 C   0  0  0  0  0  0  0  0  0  0  0  0
   -1.3855    0.8000    0.0000 C   0  0  0  0  0  0  0  0  0  0  0  0
   -2.7713    1.6000    0.0000 H   0  0  0  0  0  0  0  0  0  0  0  0
   -2.7713    0.0000    0.0000 H   0  0  0  0  0  0  0  0  0  0  0  0
   -1.3855    2.4000    0.0000 H   0  0  0  0  0  0  0  0  0  0  0  0
    1.3857    0.8000    0.0000 C   0  0  0  0  0  0  0  0  0  0  0  0
    1.3857    2.4000    0.0000 H   0  0  0  0  0  0  0  0  0  0  0  0
  1  2  2  0  0  0  0
  2  3  1  0  0  0  0
  2  4  1  0  0  0  0
  4  5  1  0  0  0  0
  5  6  1  0  0  0  0
  5  7  2  0  0  0  0
  7  8  1  0  0  0  0
  7  9  1  0  0  0  0
  9 10  1  0  0  0  0
  9 11  2  0  0  0  0
 11 12  1  0  0  0  0
 11 13  1  0  0  0  0
 13  4  2  0  0  0  0
 13 14  1  0  0  0  0
  1 15  1  0  0  0  0
 15 16  1  0  0  0  0
 16 17  1  0  0  0  0
 16 18  2  0  0  0  0
 18 19  1  0  0  0  0
 18 20  1  0  0  0  0
 20 21  1  0  0  0  0
 20 22  2  0  0  0  0
 22 23  1  0  0  0  0
 23 24  1  0  0  0  0
 23 25  1  0  0  0  0
 23 26  1  0  0  0  0
 22 27  1  0  0  0  0
 27 15  2  0  0  0  0
 27 28  1  0  0  0  0
M  END
> <ChemID>
104972

> <source_casrn>
5877-58-7

> <CAS>
NOCAS_871150

> <SMILES>
Cc1cc(ccc1)N=Cc1ccccc1

> <NAME>
Benzylidene-m-tolyl-amine

> <preferred_name>


> <iupac>


> <MPID>
23855

> <dsstox_substance_id>
DTXSID40871150

> <Canonical_QSARr>
Cc1cc(ccc1)N=Cc1ccccc1

> <InChI_Code_QSARr>
InChI=1S/C14H13N/c1-12-6-5-9-14(10-12)15-11-13-7-3-2-4-8-13/h2-11H,1H3/b15-11+

> <InChI Key_QSARr>
RAMVBCXRKUNVQT-RVDMUPIBSA-N

> <Salt_Solvent>
?

> <BP>
315.0

$$$$
104976
  -INDIGO-08031720192D

 32 31  0  0  0  0  0  0  0  0999 V2000
   -0.9478   -2.6041    0.0000 C   0  0  0  0  0  0  0  0  0  0  0  0
   -0.6701   -4.1798    0.0000 H   0  0  0  0  0  0  0  0  0  0  0  0
   -2.1735   -3.6326    0.0000 H   0  0  0  0  0  0  0  0  0  0  0  0
    0.5556   -3.1513    0.0000 H   0  0  0  0  0  0  0  0  0  0  0  0
   -1.2256   -1.0284    0.0000 C   0  0  0  0  0  0  0  0  0  0  0  0
   -2.8241   -1.0982    0.0000 H   0  0  0  0  0  0  0  0  0  0  0  0
   -2.4053    0.0525    0.0000 H   0  0  0  0  0  0  0  0  0  0  0  0
    0.0001   -0.0000    0.0000 C   0  0  0  0  0  0  0  0  0  0  0  0
    0.8000   -1.3857    0.0000 H   0  0  0  0  0  0  0  0  0  0  0  0
    1.3856    0.8000    0.0000 C   0  0  0  0  0  0  0  0  0  0  0  0
    0.7733    2.2782    0.0000 H   0  0  0  0  0  0  0  0  0  0  0  0
    1.9980    2.2782    0.0000 H   0  0  0  0  0  0  0  0  0  0  0  0
    2.7712   -0.0000    0.0000 C   0  0  0  0  0  0  0  0  0  0  0  0
    3.3835   -1.4782    0.0000 H   0  0  0  0  0  0  0  0  0  0  0  0
    2.1589   -1.4782    0.0000 H   0  0  0  0  0  0  0  0  0  0  0  0
    4.1569    0.8000    0.0000 C   0  0  0  0  0  0  0  0  0  0  0  0
    3.5446    2.2782    0.0000 H   0  0  0  0  0  0  0  0  0  0  0  0
    4.7691    2.2782    0.0000 H   0  0  0  0  0  0  0  0  0  0  0  0
    5.5425   -0.0000    0.0000 C   0  0  0  0  0  0  0  0  0  0  0  0
    6.1548   -1.4782    0.0000 H   0  0  0  0  0  0  0  0  0  0  0  0
    4.9302   -1.4782    0.0000 H   0  0  0  0  0  0  0  0  0  0  0  0
    6.9282    0.8000    0.0000 C   0  0  0  0  0  0  0  0  0  0  0  0
    6.3159    2.2782    0.0000 H   0  0  0  0  0  0  0  0  0  0  0  0
    7.5405    2.2782    0.0000 H   0  0  0  0  0  0  0  0  0  0  0  0
    8.3138   -0.0000    0.0000 C   0  0  0  0  0  0  0  0  0  0  0  0
    9.6995   -0.8000    0.0000 H   0  0  0  0  0  0  0  0  0  0  0  0
    9.6995    0.8000    0.0000 H   0  0  0  0  0  0  0  0  0  0  0  0
    8.3138   -1.6000    0.0000 H   0  0  0  0  0  0  0  0  0  0  0  0
   -0.8000    1.3856    0.0000 C   0  0  0  0  0  0  0  0  0  0  0  0
   -1.6000    2.7713    0.0000 H   0  0  0  0  0  0  0  0  0  0  0  0
   -2.3999    1.3856    0.0000 H   0  0  0  0  0  0  0  0  0  0  0  0
   -0.2527    2.8891    0.0000 H   0  0  0  0  0  0  0  0  0  0  0  0
  1  2  1  0  0  0  0
  1  3  1  0  0  0  0
  1  4  1  0  0  0  0
  1  5  1  0  0  0  0
  5  6  1  0  0  0  0
  5  7  1  0  0  0  0
  5  8  1  0  0  0  0
  8  9  1  0  0  0  0
  8 10  1  0  0  0  0
 10 11  1  0  0  0  0
 10 12  1  0  0  0  0
 10 13  1  0  0  0  0
 13 14  1  0  0  0  0
 13 15  1  0  0  0  0
 13 16  1  0  0  0  0
 16 17  1  0  0  0  0
 16 18  1  0  0  0  0
 16 19  1  0  0  0  0
 19 20  1  0  0  0  0
 19 21  1  0  0  0  0
 19 22  1  0  0  0  0
 22 23  1  0  0  0  0
 22 24  1  0  0  0  0
 22 25  1  0  0  0  0
 25 26  1  0  0  0  0
 25 27  1  0  0  0  0
 25 28  1  0  0  0  0
  8 29  1  0  0  0  0
 29 30  1  0  0  0  0
 29 31  1  0  0  0  0
 29 32  1  0  0  0  0
M  END
> <ChemID>
104976

> <source_casrn>
5911-04-6

> <CAS>
5911-04-6

> <SMILES>
CCCCCCC(C)CC

> <NAME>
NONANE, 3-METHYL-

> <preferred_name>


> <iupac>


> <MPID>
23859

> <dsstox_substance_id>
DTXSID70863649

> <Canonical_QSARr>
CCCCCCC(C)CC

> <InChI_Code_QSARr>
InChI=1S/C10H22/c1-4-6-7-8-9-10(3)5-2/h10H,4-9H2,1-3H3

> <InChI Key_QSARr>
PLZDDPSCZHRBOY-UHFFFAOYSA-N

> <Salt_Solvent>
?

> <BP>
167.9

$$$$
104983
  -INDIGO-08031720192D

 14 13  0  0  0  0  0  0  0  0999 V2000
    1.3856    2.4000    0.0000 Cl  0  0  0  0  0  0  0  0  0  0  0  0
    1.3856    0.8000    0.0000 C   0  0  0  0  0  0  0  0  0  0  0  0
    2.7713    1.6000    0.0000 H   0  0  0  0  0  0  0  0  0  0  0  0
    2.7713    0.0000    0.0000 H   0  0  0  0  0  0  0  0  0  0  0  0
    0.0000    0.0000    0.0000 C   0  0  0  0  0  0  0  0  0  0  0  0
    0.6122   -1.4782    0.0000 H   0  0  0  0  0  0  0  0  0  0  0  0
   -0.6122   -1.4782    0.0000 H   0  0  0  0  0  0  0  0  0  0  0  0
   -1.3857    0.8000    0.0000 C   0  0  0  0  0  0  0  0  0  0  0  0
   -2.7713    0.0000    0.0000 O   0  0  0  0  0  0  0  0  0  0  0  0
   -4.1569    0.8000    0.0000 C   0  0  0  0  0  0  0  0  0  0  0  0
   -5.5426    1.6000    0.0000 H   0  0  0  0  0  0  0  0  0  0  0  0
   -5.5426    0.0000    0.0000 H   0  0  0  0  0  0  0  0  0  0  0  0
   -4.1569    2.4000    0.0000 H   0  0  0  0  0  0  0  0  0  0  0  0
   -1.3857    2.4000    0.0000 O   0  0  0  0  0  0  0  0  0  0  0  0
  1  2  1  0  0  0  0
  2  3  1  0  0  0  0
  2  4  1  0  0  0  0
  2  5  1  0  0  0  0
  5  6  1  0  0  0  0
  5  7  1  0  0  0  0
  5  8  1  0  0  0  0
  8  9  1  0  0  0  0
  9 10  1  0  0  0  0
 10 11  1  0  0  0  0
 10 12  1  0  0  0  0
 10 13  1  0  0  0  0
  8 14  2  0  0  0  0
M  END
> <ChemID>
104983

> <source_casrn>
6001-87-2

> <CAS>
6001-87-2

> <SMILES>
COC(=O)CCCl

> <NAME>
PROPANOIC ACID, 3-CHLORO-, METHYL ESTER

> <preferred_name>
Methyl 3-chloropropionate

> <iupac>
Methyl 3-chloropropanoate

> <MPID>
23866

> <dsstox_substance_id>
DTXSID10208717

> <Canonical_QSARr>
COC(=O)CCCl

> <InChI_Code_QSARr>
InChI=1S/C4H7ClO2/c1-7-4(6)2-3-5/h2-3H2,1H3

> <InChI Key_QSARr>
GZGJIACHBCQSPC-UHFFFAOYSA-N

> <Salt_Solvent>
?

> <BP>
156.0

$$$$
104987
  -INDIGO-08031720192D

  9  9  0  0  0  0  0  0  0  0999 V2000
   -0.8000    1.3856    0.0000 C   0  0  0  0  0  0  0  0  0  0  0  0
    0.2706    2.5747    0.0000 S   0  0  0  0  0  0  0  0  0  0  0  0
    1.7323    1.9239    0.0000 C   0  0  0  0  0  0  0  0  0  0  0  0
    3.1179    2.7239    0.0000 Cl  0  0  0  0  0  0  0  0  0  0  0  0
    1.5650    0.3327    0.0000 C   0  0  0  0  0  0  0  0  0  0  0  0
    2.7541   -0.7379    0.0000 Cl  0  0  0  0  0  0  0  0  0  0  0  0
   -0.0000    0.0000    0.0000 C   0  0  0  0  0  0  0  0  0  0  0  0
   -0.6508   -1.4617    0.0000 Cl  0  0  0  0  0  0  0  0  0  0  0  0
   -2.3912    1.5529    0.0000 Cl  0  0  0  0  0  0  0  0  0  0  0  0
  1  2  1  0  0  0  0
  2  3  1  0  0  0  0
  3  4  1  0  0  0  0
  3  5  2  0  0  0  0
  5  6  1  0  0  0  0
  5  7  1  0  0  0  0
  7  1  2  0  0  0  0
  7  8  1  0  0  0  0
  1  9  1  0  0  0  0
M  END
> <ChemID>
104987

> <source_casrn>
6012-97-1

> <CAS>
6012-97-1

> <SMILES>
Clc1c(Cl)[s]c(Cl)c1Cl

> <NAME>
Tetrachlorothiophene

> <preferred_name>
Tetrachlorothiophene

> <iupac>
tetrachlorothiophene

> <MPID>
23870

> <dsstox_substance_id>
DTXSID5042451

> <Canonical_QSARr>
Clc1c(Cl)[s]c(Cl)c1Cl

> <InChI_Code_QSARr>
InChI=1S/C4Cl4S/c5-1-2(6)4(8)9-3(1)7

> <InChI Key_QSARr>
WZXXZHONLFRKGG-UHFFFAOYSA-N

> <Salt_Solvent>
?

> <BP>
233.4

$$$$
104991
  -INDIGO-08031720192D

 21 20  0  0  0  0  0  0  0  0999 V2000
   -2.7712    1.6000    0.0000 C   0  0  0  0  0  0  0  0  0  0  0  0
   -2.7712    3.2000    0.0000 O   0  0  0  0  0  0  0  0  0  0  0  0
   -4.1569    0.8000    0.0000 O   0  0  0  0  0  0  0  0  0  0  0  0
   -5.5426    1.6000    0.0000 H   0  0  0  0  0  0  0  0  0  0  0  0
   -1.3856    0.8000    0.0000 C   0  0  0  0  0  0  0  0  0  0  0  0
   -0.5857    2.1856    0.0000 H   0  0  0  0  0  0  0  0  0  0  0  0
    0.0001    0.0000    0.0000 C   0  0  0  0  0  0  0  0  0  0  0  0
    0.6122   -1.4782    0.0000 H   0  0  0  0  0  0  0  0  0  0  0  0
   -0.6122   -1.4782    0.0000 H   0  0  0  0  0  0  0  0  0  0  0  0
    1.3856    0.8000    0.0000 C   0  0  0  0  0  0  0  0  0  0  0  0
    0.7734    2.2782    0.0000 H   0  0  0  0  0  0  0  0  0  0  0  0
    1.9979    2.2782    0.0000 H   0  0  0  0  0  0  0  0  0  0  0  0
    2.7712    0.0000    0.0000 C   0  0  0  0  0  0  0  0  0  0  0  0
    3.3836   -1.4782    0.0000 H   0  0  0  0  0  0  0  0  0  0  0  0
    2.1589   -1.4782    0.0000 H   0  0  0  0  0  0  0  0  0  0  0  0
    4.1569    0.8000    0.0000 C   0  0  0  0  0  0  0  0  0  0  0  0
    5.5426    1.6000    0.0000 H   0  0  0  0  0  0  0  0  0  0  0  0
    5.5426    0.0000    0.0000 H   0  0  0  0  0  0  0  0  0  0  0  0
    4.1569    2.4000    0.0000 H   0  0  0  0  0  0  0  0  0  0  0  0
   -2.1856   -0.5856    0.0000 O   0  0  0  0  0  0  0  0  0  0  0  0
   -3.7856   -0.5856    0.0000 H   0  0  0  0  0  0  0  0  0  0  0  0
  1  2  2  0  0  0  0
  1  3  1  0  0  0  0
  3  4  1  0  0  0  0
  1  5  1  0  0  0  0
  5  6  1  0  0  0  0
  5  7  1  0  0  0  0
  7  8  1  0  0  0  0
  7  9  1  0  0  0  0
  7 10  1  0  0  0  0
 10 11  1  0  0  0  0
 10 12  1  0  0  0  0
 10 13  1  0  0  0  0
 13 14  1  0  0  0  0
 13 15  1  0  0  0  0
 13 16  1  0  0  0  0
 16 17  1  0  0  0  0
 16 18  1  0  0  0  0
 16 19  1  0  0  0  0
  5 20  1  0  0  0  0
 20 21  1  0  0  0  0
M  END
> <ChemID>
104991

> <source_casrn>
6064-63-7

> <CAS>
NOCAS_863686

> <SMILES>
CCCCC(O)C(O)=O

> <NAME>
HEXANOIC ACID, 2-HYDROXY-

> <preferred_name>


> <iupac>


> <MPID>
23874

> <dsstox_substance_id>
DTXSID90863686

> <Canonical_QSARr>
CCCCC(O)C(O)=O

> <InChI_Code_QSARr>
InChI=1S/C6H12O3/c1-2-3-4-5(7)6(8)9/h5,7H,2-4H2,1H3,(H,8,9)

> <InChI Key_QSARr>
NYHNVHGFPZAZGA-UHFFFAOYSA-N

> <Salt_Solvent>
?

> <BP>
305.0

$$$$
104996
  -INDIGO-08031720192D

 15 14  0  0  0  0  0  0  0  0999 V2000
   -1.3856   -0.8000    0.0000 C   0  0  0  0  0  0  0  0  0  0  0  0
    0.0000    0.0000    0.0000 C   0  0  0  0  0  0  0  0  0  0  0  0
    0.8000   -1.3856    0.0000 H   0  0  0  0  0  0  0  0  0  0  0  0
    1.3856    0.8000    0.0000 C   0  0  0  0  0  0  0  0  0  0  0  0
    0.7733    2.2782    0.0000 H   0  0  0  0  0  0  0  0  0  0  0  0
    1.9980    2.2782    0.0000 H   0  0  0  0  0  0  0  0  0  0  0  0
    2.7713    0.0000    0.0000 C   0  0  0  0  0  0  0  0  0  0  0  0
    4.1569   -0.8000    0.0000 H   0  0  0  0  0  0  0  0  0  0  0  0
    4.1569    0.8000    0.0000 H   0  0  0  0  0  0  0  0  0  0  0  0
    2.7713   -1.6000    0.0000 H   0  0  0  0  0  0  0  0  0  0  0  0
   -0.8000    1.3856    0.0000 O   0  0  0  0  0  0  0  0  0  0  0  0
   -2.4000    1.3856    0.0000 H   0  0  0  0  0  0  0  0  0  0  0  0
   -2.7713   -1.6000    0.0000 Cl  0  0  0  0  0  0  0  0  0  0  0  0
   -2.7713    0.0000    0.0000 Cl  0  0  0  0  0  0  0  0  0  0  0  0
   -1.3856   -2.4000    0.0000 Cl  0  0  0  0  0  0  0  0  0  0  0  0
  1  2  1  0  0  0  0
  2  3  1  0  0  0  0
  2  4  1  0  0  0  0
  4  5  1  0  0  0  0
  4  6  1  0  0  0  0
  4  7  1  0  0  0  0
  7  8  1  0  0  0  0
  7  9  1  0  0  0  0
  7 10  1  0  0  0  0
  2 11  1  0  0  0  0
 11 12  1  0  0  0  0
  1 13  1  0  0  0  0
  1 14  1  0  0  0  0
  1 15  1  0  0  0  0
M  END
> <ChemID>
104996

> <source_casrn>
6111-61-1

> <CAS>
NOCAS_871152

> <SMILES>
CCC(O)C(Cl)(Cl)Cl

> <NAME>
2-Butanol, 1,1,1-trichloro-

> <preferred_name>


> <iupac>


> <MPID>
23879

> <dsstox_substance_id>
DTXSID60871152

> <Canonical_QSARr>
CCC(O)C(Cl)(Cl)Cl

> <InChI_Code_QSARr>
InChI=1S/C4H7Cl3O/c1-2-3(8)4(5,6)7/h3,8H,2H2,1H3

> <InChI Key_QSARr>
MJFSFJZFTQSCGW-UHFFFAOYSA-N

> <Salt_Solvent>
?

> <BP>
171.0

$$$$
105001
  -INDIGO-08031720192D

 11 10  0  0  0  0  0  0  0  0999 V2000
    1.3856   -0.8000    0.0000 C   0  0  0  0  0  0  0  0  0  0  0  0
    1.3856   -2.4000    0.0000 O   0  0  0  0  0  0  0  0  0  0  0  0
    2.7713    0.0000    0.0000 O   0  0  0  0  0  0  0  0  0  0  0  0
    4.1569   -0.8000    0.0000 C   0  0  0  0  0  0  0  0  0  0  0  0
    5.5426   -1.6000    0.0000 Cl  0  0  0  0  0  0  0  0  0  0  0  0
    5.5426    0.0000    0.0000 Cl  0  0  0  0  0  0  0  0  0  0  0  0
    4.1569   -2.4000    0.0000 Cl  0  0  0  0  0  0  0  0  0  0  0  0
    0.0000    0.0000    0.0000 C   0  0  0  0  0  0  0  0  0  0  0  0
   -1.3856    0.8000    0.0000 Cl  0  0  0  0  0  0  0  0  0  0  0  0
    0.0000    1.6000    0.0000 Cl  0  0  0  0  0  0  0  0  0  0  0  0
   -1.3856   -0.8000    0.0000 Cl  0  0  0  0  0  0  0  0  0  0  0  0
  1  2  2  0  0  0  0
  1  3  1  0  0  0  0
  3  4  1  0  0  0  0
  4  5  1  0  0  0  0
  4  6  1  0  0  0  0
  4  7  1  0  0  0  0
  1  8  1  0  0  0  0
  8  9  1  0  0  0  0
  8 10  1  0  0  0  0
  8 11  1  0  0  0  0
M  END
> <ChemID>
105001

> <source_casrn>
6135-29-1

> <CAS>
NOCAS_871153

> <SMILES>
O=C(OC(Cl)(Cl)Cl)C(Cl)(Cl)Cl

> <NAME>
TRICHLOROMETHYL TRICHLOROACETATE

> <preferred_name>


> <iupac>


> <MPID>
23883

> <dsstox_substance_id>
DTXSID20871153

> <Canonical_QSARr>
O=C(OC(Cl)(Cl)Cl)C(Cl)(Cl)Cl

> <InChI_Code_QSARr>
InChI=1S/C3Cl6O2/c4-2(5,6)1(10)11-3(7,8)9

> <InChI Key_QSARr>
YYWRWVLWCGOORG-UHFFFAOYSA-N

> <Salt_Solvent>
?

> <BP>
191.5

$$$$
105005
  -INDIGO-08031720192D

 30 31  0  0  0  0  0  0  0  0999 V2000
   -3.2001    2.7713    0.0000 O   0  0  0  0  0  0  0  0  0  0  0  0
   -2.4000    1.3856    0.0000 C   0  0  0  0  0  0  0  0  0  0  0  0
   -0.8000    1.3856    0.0000 C   0  0  0  0  0  0  0  0  0  0  0  0
    0.0001    2.7713    0.0000 H   0  0  0  0  0  0  0  0  0  0  0  0
    0.0001    0.0000    0.0000 C   0  0  0  0  0  0  0  0  0  0  0  0
    1.5999    0.0000    0.0000 C   0  0  0  0  0  0  0  0  0  0  0  0
    2.4000    1.3856    0.0000 C   0  0  0  0  0  0  0  0  0  0  0  0
    1.5999    2.7713    0.0000 H   0  0  0  0  0  0  0  0  0  0  0  0
    4.0000    1.3856    0.0000 C   0  0  0  0  0  0  0  0  0  0  0  0
    4.8001    2.7713    0.0000 O   0  0  0  0  0  0  0  0  0  0  0  0
    6.3999    2.7713    0.0000 C   0  0  0  0  0  0  0  0  0  0  0  0
    7.2000    4.1569    0.0000 H   0  0  0  0  0  0  0  0  0  0  0  0
    8.0000    2.7713    0.0000 H   0  0  0  0  0  0  0  0  0  0  0  0
    5.6001    4.1569    0.0000 H   0  0  0  0  0  0  0  0  0  0  0  0
    4.8001    0.0000    0.0000 C   0  0  0  0  0  0  0  0  0  0  0  0
    6.3999    0.0000    0.0000 H   0  0  0  0  0  0  0  0  0  0  0  0
    4.0000   -1.3856    0.0000 C   0  0  0  0  0  0  0  0  0  0  0  0
    4.8001   -2.7713    0.0000 H   0  0  0  0  0  0  0  0  0  0  0  0
    2.4000   -1.3856    0.0000 C   0  0  0  0  0  0  0  0  0  0  0  0
    1.5999   -2.7713    0.0000 H   0  0  0  0  0  0  0  0  0  0  0  0
   -0.8000   -1.3856    0.0000 C   0  0  0  0  0  0  0  0  0  0  0  0
    0.0001   -2.7713    0.0000 H   0  0  0  0  0  0  0  0  0  0  0  0
   -2.4000   -1.3856    0.0000 C   0  0  0  0  0  0  0  0  0  0  0  0
   -3.2001   -2.7713    0.0000 H   0  0  0  0  0  0  0  0  0  0  0  0
   -3.2001    0.0000    0.0000 C   0  0  0  0  0  0  0  0  0  0  0  0
   -4.7999    0.0000    0.0000 H   0  0  0  0  0  0  0  0  0  0  0  0
   -4.7999    2.7713    0.0000 C   0  0  0  0  0  0  0  0  0  0  0  0
   -5.6000    4.1569    0.0000 H   0  0  0  0  0  0  0  0  0  0  0  0
   -6.4000    2.7713    0.0000 H   0  0  0  0  0  0  0  0  0  0  0  0
   -4.0001    4.1569    0.0000 H   0  0  0  0  0  0  0  0  0  0  0  0
  1  2  1  0  0  0  0
  2  3  1  0  0  0  0
  3  4  1  0  0  0  0
  3  5  2  0  0  0  0
  5  6  1  0  0  0  0
  6  7  1  0  0  0  0
  7  8  1  0  0  0  0
  7  9  2  0  0  0  0
  9 10  1  0  0  0  0
 10 11  1  0  0  0  0
 11 12  1  0  0  0  0
 11 13  1  0  0  0  0
 11 14  1  0  0  0  0
  9 15  1  0  0  0  0
 15 16  1  0  0  0  0
 15 17  2  0  0  0  0
 17 18  1  0  0  0  0
 17 19  1  0  0  0  0
 19  6  2  0  0  0  0
 19 20  1  0  0  0  0
  5 21  1  0  0  0  0
 21 22  1  0  0  0  0
 21 23  2  0  0  0  0
 23 24  1  0  0  0  0
 23 25  1  0  0  0  0
 25  2  2  0  0  0  0
 25 26  1  0  0  0  0
  1 27  1  0  0  0  0
 27 28  1  0  0  0  0
 27 29  1  0  0  0  0
 27 30  1  0  0  0  0
M  END
> <ChemID>
105005

> <source_casrn>
6161-50-8

> <CAS>
6161-50-8

> <SMILES>
COc1cc(ccc1)-c1cc(ccc1)OC

> <NAME>
1,1'-BIPHENYL, 3,3'-DIMETHOXY-

> <preferred_name>
3,3'-Dimethoxy-1,1'-biphenyl

> <iupac>
1-methoxy-3-(3-methoxyphenyl)benzene

> <MPID>
23887

> <dsstox_substance_id>
DTXSID40210626

> <Canonical_QSARr>
COc1cc(ccc1)-c1cc(ccc1)OC

> <InChI_Code_QSARr>
InChI=1S/C14H14O2/c1-15-13-7-3-5-11(9-13)12-6-4-8-14(10-12)16-2/h3-10H,1-2H3

> <InChI Key_QSARr>
UCHNVSDXSPIKRG-UHFFFAOYSA-N

> <Salt_Solvent>
?

> <BP>
328.0

$$$$
105010
  -INDIGO-08031720192D

 12 11  0  0  0  0  0  0  0  0999 V2000
    0.0000   -1.6000    0.0000 Cl  0  0  0  0  0  0  0  0  0  0  0  0
    0.0000    0.0000    0.0000 C   0  0  0  0  0  0  0  0  0  0  0  0
    1.3856    0.8000    0.0000 C   0  0  0  0  0  0  0  0  0  0  0  0
    2.7713    1.6000    0.0000 H   0  0  0  0  0  0  0  0  0  0  0  0
    2.7713    0.0000    0.0000 H   0  0  0  0  0  0  0  0  0  0  0  0
    1.3856    2.4000    0.0000 H   0  0  0  0  0  0  0  0  0  0  0  0
   -1.3857    0.8000    0.0000 C   0  0  0  0  0  0  0  0  0  0  0  0
   -1.3857    2.4000    0.0000 H   0  0  0  0  0  0  0  0  0  0  0  0
   -2.7713    0.0000    0.0000 C   0  0  0  0  0  0  0  0  0  0  0  0
   -4.1569    0.8000    0.0000 O   0  0  0  0  0  0  0  0  0  0  0  0
   -5.5426    0.0000    0.0000 H   0  0  0  0  0  0  0  0  0  0  0  0
   -2.7713   -1.6000    0.0000 O   0  0  0  0  0  0  0  0  0  0  0  0
  1  2  1  0  0  0  0
  2  3  1  0  0  0  0
  3  4  1  0  0  0  0
  3  5  1  0  0  0  0
  3  6  1  0  0  0  0
  2  7  2  0  0  0  0
  7  8  1  0  0  0  0
  7  9  1  0  0  0  0
  9 10  1  0  0  0  0
 10 11  1  0  0  0  0
  9 12  2  0  0  0  0
M  END
> <ChemID>
105010

> <source_casrn>
6214-28-4

> <CAS>
6213-90-7

> <SMILES>
C/C(/Cl)=C/C(O)=O

> <NAME>
3-Chlorocrotonic acid

> <preferred_name>
2-Butenoic acid, 3-chloro-

> <iupac>
C4H5ClO2

> <MPID>
23891

> <dsstox_substance_id>
DTXSID70349115

> <Canonical_QSARr>
CC(Cl)=CC(O)=O

> <InChI_Code_QSARr>
InChI=1S/C4H5ClO2/c1-3(5)2-4(6)7/h2H,1H3,(H,6,7)/b3-2-

> <InChI Key_QSARr>
XBOTUWGQYMHUFO-IHWYPQMZSA-N

> <Salt_Solvent>
?

> <BP>
195.0

$$$$
105015
  -INDIGO-08031720192D

 26 25  0  0  0  0  0  0  0  0999 V2000
    2.1590    1.4782    0.0000 Br  0  0  0  0  0  0  0  0  0  0  0  0
    2.7713    0.0000    0.0000 C   0  0  0  0  0  0  0  0  0  0  0  0
    3.3835    1.4782    0.0000 H   0  0  0  0  0  0  0  0  0  0  0  0
    1.3856   -0.8000    0.0000 C   0  0  0  0  0  0  0  0  0  0  0  0
    0.7733   -2.2782    0.0000 H   0  0  0  0  0  0  0  0  0  0  0  0
    1.9980   -2.2782    0.0000 H   0  0  0  0  0  0  0  0  0  0  0  0
   -0.0001    0.0000    0.0000 C   0  0  0  0  0  0  0  0  0  0  0  0
    0.6123    1.4782    0.0000 H   0  0  0  0  0  0  0  0  0  0  0  0
   -0.6122    1.4782    0.0000 H   0  0  0  0  0  0  0  0  0  0  0  0
   -1.3856   -0.8000    0.0000 C   0  0  0  0  0  0  0  0  0  0  0  0
   -1.9979   -2.2782    0.0000 H   0  0  0  0  0  0  0  0  0  0  0  0
   -0.7734   -2.2782    0.0000 H   0  0  0  0  0  0  0  0  0  0  0  0
   -2.7713    0.0000    0.0000 C   0  0  0  0  0  0  0  0  0  0  0  0
   -2.1589    1.4782    0.0000 H   0  0  0  0  0  0  0  0  0  0  0  0
   -3.3836    1.4782    0.0000 H   0  0  0  0  0  0  0  0  0  0  0  0
   -4.1570   -0.8000    0.0000 C   0  0  0  0  0  0  0  0  0  0  0  0
   -4.7692   -2.2782    0.0000 H   0  0  0  0  0  0  0  0  0  0  0  0
   -3.5446   -2.2782    0.0000 H   0  0  0  0  0  0  0  0  0  0  0  0
   -5.5425    0.0000    0.0000 C   0  0  0  0  0  0  0  0  0  0  0  0
   -6.9282    0.8000    0.0000 H   0  0  0  0  0  0  0  0  0  0  0  0
   -6.9282   -0.8000    0.0000 H   0  0  0  0  0  0  0  0  0  0  0  0
   -5.5425    1.6000    0.0000 H   0  0  0  0  0  0  0  0  0  0  0  0
    4.1569   -0.8000    0.0000 C   0  0  0  0  0  0  0  0  0  0  0  0
    5.5426   -1.6000    0.0000 H   0  0  0  0  0  0  0  0  0  0  0  0
    5.5426    0.0000    0.0000 H   0  0  0  0  0  0  0  0  0  0  0  0
    4.1569   -2.4000    0.0000 Br  0  0  0  0  0  0  0  0  0  0  0  0
  1  2  1  0  0  0  0
  2  3  1  0  0  0  0
  2  4  1  0  0  0  0
  4  5  1  0  0  0  0
  4  6  1  0  0  0  0
  4  7  1  0  0  0  0
  7  8  1  0  0  0  0
  7  9  1  0  0  0  0
  7 10  1  0  0  0  0
 10 11  1  0  0  0  0
 10 12  1  0  0  0  0
 10 13  1  0  0  0  0
 13 14  1  0  0  0  0
 13 15  1  0  0  0  0
 13 16  1  0  0  0  0
 16 17  1  0  0  0  0
 16 18  1  0  0  0  0
 16 19  1  0  0  0  0
 19 20  1  0  0  0  0
 19 21  1  0  0  0  0
 19 22  1  0  0  0  0
  2 23  1  0  0  0  0
 23 24  1  0  0  0  0
 23 25  1  0  0  0  0
 23 26  1  0  0  0  0
M  END
> <ChemID>
105015

> <source_casrn>
6269-92-7

> <CAS>
NOCAS_871158

> <SMILES>
CCCCCCC(Br)CBr

> <NAME>
OCTANE, 1,2-DIBROMO-

> <preferred_name>
1,2-Dibromooctane

> <iupac>
C8H16Br2

> <MPID>
23896

> <dsstox_substance_id>
DTXSID20871158

> <Canonical_QSARr>
CCCCCCC(Br)CBr

> <InChI_Code_QSARr>
InChI=1S/C8H16Br2/c1-2-3-4-5-6-8(10)7-9/h8H,2-7H2,1H3

> <InChI Key_QSARr>
BJJLJKYBNCPTQS-UHFFFAOYSA-N

> <Salt_Solvent>
?

> <BP>
241.0

$$$$
105019
  -INDIGO-08031720192D

 23 23  0  0  0  0  0  0  0  0999 V2000
   -2.7712    0.0000    0.0000 O   0  0  0  0  0  0  0  0  0  0  0  0
   -1.3857   -0.8000    0.0000 C   0  0  0  0  0  0  0  0  0  0  0  0
   -0.7734   -2.2782    0.0000 H   0  0  0  0  0  0  0  0  0  0  0  0
   -1.9979   -2.2782    0.0000 H   0  0  0  0  0  0  0  0  0  0  0  0
   -0.0000    0.0000    0.0000 C   0  0  0  0  0  0  0  0  0  0  0  0
   -0.6124    1.4782    0.0000 H   0  0  0  0  0  0  0  0  0  0  0  0
    0.6123    1.4782    0.0000 H   0  0  0  0  0  0  0  0  0  0  0  0
    1.3856   -0.8000    0.0000 C   0  0  0  0  0  0  0  0  0  0  0  0
    2.7713   -1.6000    0.0000 H   0  0  0  0  0  0  0  0  0  0  0  0
    2.7713    0.0000    0.0000 H   0  0  0  0  0  0  0  0  0  0  0  0
    1.3856   -2.4000    0.0000 H   0  0  0  0  0  0  0  0  0  0  0  0
   -4.1569   -0.8000    0.0000 C   0  0  0  0  0  0  0  0  0  0  0  0
   -5.5425    0.0000    0.0000 C   0  0  0  0  0  0  0  0  0  0  0  0
   -5.5425    1.6000    0.0000 O   0  0  0  0  0  0  0  0  0  0  0  0
   -6.9282    2.4000    0.0000 H   0  0  0  0  0  0  0  0  0  0  0  0
   -6.9282   -0.8000    0.0000 C   0  0  0  0  0  0  0  0  0  0  0  0
   -8.3138    0.0000    0.0000 H   0  0  0  0  0  0  0  0  0  0  0  0
   -6.9282   -2.4000    0.0000 C   0  0  0  0  0  0  0  0  0  0  0  0
   -8.3138   -3.2000    0.0000 H   0  0  0  0  0  0  0  0  0  0  0  0
   -5.5425   -3.2000    0.0000 C   0  0  0  0  0  0  0  0  0  0  0  0
   -5.5425   -4.8000    0.0000 H   0  0  0  0  0  0  0  0  0  0  0  0
   -4.1569   -2.4000    0.0000 C   0  0  0  0  0  0  0  0  0  0  0  0
   -2.7712   -3.2000    0.0000 H   0  0  0  0  0  0  0  0  0  0  0  0
  1  2  1  0  0  0  0
  2  3  1  0  0  0  0
  2  4  1  0  0  0  0
  2  5  1  0  0  0  0
  5  6  1  0  0  0  0
  5  7  1  0  0  0  0
  5  8  1  0  0  0  0
  8  9  1  0  0  0  0
  8 10  1  0  0  0  0
  8 11  1  0  0  0  0
  1 12  1  0  0  0  0
 12 13  1  0  0  0  0
 13 14  1  0  0  0  0
 14 15  1  0  0  0  0
 13 16  2  0  0  0  0
 16 17  1  0  0  0  0
 16 18  1  0  0  0  0
 18 19  1  0  0  0  0
 18 20  2  0  0  0  0
 20 21  1  0  0  0  0
 20 22  1  0  0  0  0
 22 12  2  0  0  0  0
 22 23  1  0  0  0  0
M  END
> <ChemID>
105019

> <source_casrn>
6280-96-2

> <CAS>
6280-96-2

> <SMILES>
CCCOc1ccccc1O

> <NAME>
2-Propoxy-phenol

> <preferred_name>
o-Propoxyphenol

> <iupac>
2-Propoxyphenol

> <MPID>
23900

> <dsstox_substance_id>
DTXSID90211901

> <Canonical_QSARr>
CCCOc1ccccc1O

> <InChI_Code_QSARr>
InChI=1S/C9H12O2/c1-2-7-11-9-6-4-3-5-8(9)10/h3-6,10H,2,7H2,1H3

> <InChI Key_QSARr>
JFSVGKRARHIICJ-UHFFFAOYSA-N

> <Salt_Solvent>
?

> <BP>
227.0

$$$$
105024
  -INDIGO-08031720192D

 29 29  0  0  0  0  0  0  0  0999 V2000
    1.3856   -0.8000    0.0000 N   0  0  0  0  0  0  0  0  0  0  0  0
    2.7713    0.0000    0.0000 H   0  0  0  0  0  0  0  0  0  0  0  0
    0.0001    0.0000    0.0000 C   0  0  0  0  0  0  0  0  0  0  0  0
    1.0285    1.2256    0.0000 C   0  0  0  0  0  0  0  0  0  0  0  0
    2.0570    2.4513    0.0000 H   0  0  0  0  0  0  0  0  0  0  0  0
    0.4812    2.7292    0.0000 H   0  0  0  0  0  0  0  0  0  0  0  0
    2.6041    0.9478    0.0000 H   0  0  0  0  0  0  0  0  0  0  0  0
   -1.0285    1.2256    0.0000 C   0  0  0  0  0  0  0  0  0  0  0  0
   -2.0569    2.4513    0.0000 H   0  0  0  0  0  0  0  0  0  0  0  0
   -0.4812    2.7292    0.0000 H   0  0  0  0  0  0  0  0  0  0  0  0
   -2.6041    1.5035    0.0000 H   0  0  0  0  0  0  0  0  0  0  0  0
   -1.3856   -0.8000    0.0000 C   0  0  0  0  0  0  0  0  0  0  0  0
   -1.9329    0.7035    0.0000 H   0  0  0  0  0  0  0  0  0  0  0  0
   -2.9614   -1.0779    0.0000 H   0  0  0  0  0  0  0  0  0  0  0  0
   -1.3856   -2.4000    0.0000 C   0  0  0  0  0  0  0  0  0  0  0  0
   -2.9614   -2.1222    0.0000 H   0  0  0  0  0  0  0  0  0  0  0  0
   -2.4141   -3.6256    0.0000 C   0  0  0  0  0  0  0  0  0  0  0  0
   -3.4425   -4.8513    0.0000 H   0  0  0  0  0  0  0  0  0  0  0  0
   -3.9898   -3.3478    0.0000 H   0  0  0  0  0  0  0  0  0  0  0  0
   -1.8669   -5.1292    0.0000 H   0  0  0  0  0  0  0  0  0  0  0  0
    0.0001   -3.2001    0.0000 C   0  0  0  0  0  0  0  0  0  0  0  0
   -1.0285   -4.4257    0.0000 H   0  0  0  0  0  0  0  0  0  0  0  0
    1.0285   -4.4257    0.0000 H   0  0  0  0  0  0  0  0  0  0  0  0
    1.3856   -2.4000    0.0000 C   0  0  0  0  0  0  0  0  0  0  0  0
    1.9329   -3.9035    0.0000 H   0  0  0  0  0  0  0  0  0  0  0  0
    2.9614   -2.1222    0.0000 C   0  0  0  0  0  0  0  0  0  0  0  0
    4.5370   -1.8443    0.0000 H   0  0  0  0  0  0  0  0  0  0  0  0
    3.9898   -3.3478    0.0000 H   0  0  0  0  0  0  0  0  0  0  0  0
    3.5086   -0.6186    0.0000 H   0  0  0  0  0  0  0  0  0  0  0  0
  1  2  1  0  0  0  0
  1  3  1  0  0  0  0
  3  4  1  0  0  0  0
  4  5  1  0  0  0  0
  4  6  1  0  0  0  0
  4  7  1  0  0  0  0
  3  8  1  0  0  0  0
  8  9  1  0  0  0  0
  8 10  1  0  0  0  0
  8 11  1  0  0  0  0
  3 12  1  0  0  0  0
 12 13  1  0  0  0  0
 12 14  1  0  0  0  0
 12 15  1  0  0  0  0
 15 16  1  0  0  0  0
 15 17  1  0  0  0  0
 17 18  1  0  0  0  0
 17 19  1  0  0  0  0
 17 20  1  0  0  0  0
 15 21  1  0  0  0  0
 21 22  1  0  0  0  0
 21 23  1  0  0  0  0
 21 24  1  0  0  0  0
 24  1  1  0  0  0  0
 24 25  1  0  0  0  0
 24 26  1  0  0  0  0
 26 27  1  0  0  0  0
 26 28  1  0  0  0  0
 26 29  1  0  0  0  0
M  END
> <ChemID>
105024

> <source_casrn>
6292-82-6

> <CAS>
NOCAS_871159

> <SMILES>
CC1CC(C)NC(C)(C)C1

> <NAME>
2,2,4,6-Tetramethyl-piperidine

> <preferred_name>


> <iupac>


> <MPID>
23905

> <dsstox_substance_id>
DTXSID80871159

> <Canonical_QSARr>
CC1CC(C)NC(C)(C)C1

> <InChI_Code_QSARr>
InChI=1S/C9H19N/c1-7-5-8(2)10-9(3,4)6-7/h7-8,10H,5-6H2,1-4H3

> <InChI Key_QSARr>
NGBCPOUXXDBLMT-UHFFFAOYSA-N

> <Salt_Solvent>
?

> <BP>
156.0

$$$$
105028
  -INDIGO-08031720192D

 26 27  0  0  0  0  0  0  0  0999 V2000
   -4.1569    2.4000    0.0000 O   0  0  0  0  0  0  0  0  0  0  0  0
   -4.1569    0.8000    0.0000 C   0  0  0  0  0  0  0  0  0  0  0  0
   -2.7712   -0.0000    0.0000 C   0  0  0  0  0  0  0  0  0  0  0  0
   -1.3857    0.8000    0.0000 C   0  0  0  0  0  0  0  0  0  0  0  0
   -1.3857    2.4000    0.0000 H   0  0  0  0  0  0  0  0  0  0  0  0
    0.0000   -0.0000    0.0000 C   0  0  0  0  0  0  0  0  0  0  0  0
    0.0000   -1.6000    0.0000 C   0  0  0  0  0  0  0  0  0  0  0  0
    1.3857   -2.4000    0.0000 C   0  0  0  0  0  0  0  0  0  0  0  0
    1.3857   -4.0000    0.0000 H   0  0  0  0  0  0  0  0  0  0  0  0
    2.7712   -1.6000    0.0000 C   0  0  0  0  0  0  0  0  0  0  0  0
    4.1569   -2.4000    0.0000 H   0  0  0  0  0  0  0  0  0  0  0  0
    2.7712   -0.0000    0.0000 C   0  0  0  0  0  0  0  0  0  0  0  0
    4.1569    0.8000    0.0000 H   0  0  0  0  0  0  0  0  0  0  0  0
    1.3857    0.8000    0.0000 C   0  0  0  0  0  0  0  0  0  0  0  0
    1.3857    2.4000    0.0000 H   0  0  0  0  0  0  0  0  0  0  0  0
   -1.3857   -2.4000    0.0000 C   0  0  0  0  0  0  0  0  0  0  0  0
   -1.3857   -4.0000    0.0000 H   0  0  0  0  0  0  0  0  0  0  0  0
   -2.7712   -1.6000    0.0000 C   0  0  0  0  0  0  0  0  0  0  0  0
   -4.1569   -2.4000    0.0000 H   0  0  0  0  0  0  0  0  0  0  0  0
   -5.5426   -0.0000    0.0000 C   0  0  0  0  0  0  0  0  0  0  0  0
   -6.1548   -1.4782    0.0000 H   0  0  0  0  0  0  0  0  0  0  0  0
   -4.9303   -1.4782    0.0000 H   0  0  0  0  0  0  0  0  0  0  0  0
   -6.9281    0.8000    0.0000 C   0  0  0  0  0  0  0  0  0  0  0  0
   -8.3138    1.6000    0.0000 H   0  0  0  0  0  0  0  0  0  0  0  0
   -8.3138   -0.0000    0.0000 H   0  0  0  0  0  0  0  0  0  0  0  0
   -6.9281    2.4000    0.0000 H   0  0  0  0  0  0  0  0  0  0  0  0
  1  2  2  0  0  0  0
  2  3  1  0  0  0  0
  3  4  1  0  0  0  0
  4  5  1  0  0  0  0
  4  6  2  0  0  0  0
  6  7  1  0  0  0  0
  7  8  1  0  0  0  0
  8  9  1  0  0  0  0
  8 10  2  0  0  0  0
 10 11  1  0  0  0  0
 10 12  1  0  0  0  0
 12 13  1  0  0  0  0
 12 14  2  0  0  0  0
 14  6  1  0  0  0  0
 14 15  1  0  0  0  0
  7 16  2  0  0  0  0
 16 17  1  0  0  0  0
 16 18  1  0  0  0  0
 18  3  2  0  0  0  0
 18 19  1  0  0  0  0
  2 20  1  0  0  0  0
 20 21  1  0  0  0  0
 20 22  1  0  0  0  0
 20 23  1  0  0  0  0
 23 24  1  0  0  0  0
 23 25  1  0  0  0  0
 23 26  1  0  0  0  0
M  END
> <ChemID>
105028

> <source_casrn>
6315-96-4

> <CAS>
6315-96-4

> <SMILES>
CCC(=O)c1cc2ccccc2cc1

> <NAME>
Ethyl 2-naphthyl ketone

> <preferred_name>
1-(2-Naphthyl)propan-1-one

> <iupac>
1-naphthalen-2-ylpropan-1-one

> <MPID>
23909

> <dsstox_substance_id>
DTXSID90212498

> <Canonical_QSARr>
CCC(=O)c1cc2ccccc2cc1

> <InChI_Code_QSARr>
InChI=1S/C13H12O/c1-2-13(14)12-8-7-10-5-3-4-6-11(10)9-12/h3-9H,2H2,1H3

> <InChI Key_QSARr>
QLYPHTMKMPIJNG-UHFFFAOYSA-N

> <Salt_Solvent>
?

> <BP>
313.0

$$$$
105032
  -INDIGO-08031720192D

 18 18  0  0  0  0  0  0  0  0999 V2000
   -0.0001   -0.0000    0.0000 C   0  0  0  0  0  0  0  0  0  0  0  0
    1.3857    0.8000    0.0000 O   0  0  0  0  0  0  0  0  0  0  0  0
    2.7713   -0.0000    0.0000 C   0  0  0  0  0  0  0  0  0  0  0  0
    2.7713   -1.6000    0.0000 O   0  0  0  0  0  0  0  0  0  0  0  0
    4.1569    0.8000    0.0000 C   0  0  0  0  0  0  0  0  0  0  0  0
    5.5426    1.6000    0.0000 H   0  0  0  0  0  0  0  0  0  0  0  0
    5.5426   -0.0000    0.0000 H   0  0  0  0  0  0  0  0  0  0  0  0
    4.1569    2.4000    0.0000 H   0  0  0  0  0  0  0  0  0  0  0  0
   -0.0001   -1.6000    0.0000 C   0  0  0  0  0  0  0  0  0  0  0  0
    1.3857   -2.4000    0.0000 Cl  0  0  0  0  0  0  0  0  0  0  0  0
   -1.3857   -2.4000    0.0000 C   0  0  0  0  0  0  0  0  0  0  0  0
   -1.3857   -4.0000    0.0000 H   0  0  0  0  0  0  0  0  0  0  0  0
   -2.7713   -1.6000    0.0000 C   0  0  0  0  0  0  0  0  0  0  0  0
   -4.1569   -2.4000    0.0000 Cl  0  0  0  0  0  0  0  0  0  0  0  0
   -2.7713   -0.0000    0.0000 C   0  0  0  0  0  0  0  0  0  0  0  0
   -4.1569    0.8000    0.0000 H   0  0  0  0  0  0  0  0  0  0  0  0
   -1.3857    0.8000    0.0000 C   0  0  0  0  0  0  0  0  0  0  0  0
   -1.3857    2.4000    0.0000 H   0  0  0  0  0  0  0  0  0  0  0  0
  1  2  1  0  0  0  0
  2  3  1  0  0  0  0
  3  4  2  0  0  0  0
  3  5  1  0  0  0  0
  5  6  1  0  0  0  0
  5  7  1  0  0  0  0
  5  8  1  0  0  0  0
  1  9  1  0  0  0  0
  9 10  1  0  0  0  0
  9 11  2  0  0  0  0
 11 12  1  0  0  0  0
 11 13  1  0  0  0  0
 13 14  1  0  0  0  0
 13 15  2  0  0  0  0
 15 16  1  0  0  0  0
 15 17  1  0  0  0  0
 17  1  2  0  0  0  0
 17 18  1  0  0  0  0
M  END
> <ChemID>
105032

> <source_casrn>
6341-97-5

> <CAS>
NOCAS_872276

> <SMILES>
CC(=O)Oc1ccc(Cl)cc1Cl

> <NAME>
PHENOL, 2,4-DICHLORO-, ACETATE

> <preferred_name>


> <iupac>


> <MPID>
23913

> <dsstox_substance_id>
DTXSID70872276

> <Canonical_QSARr>
CC(=O)Oc1ccc(Cl)cc1Cl

> <InChI_Code_QSARr>
InChI=1S/C8H6Cl2O2/c1-5(11)12-8-3-2-6(9)4-7(8)10/h2-4H,1H3

> <InChI Key_QSARr>
KGXUYVOKSRCTEK-UHFFFAOYSA-N

> <Salt_Solvent>
?

> <BP>
244.5

$$$$
105036
  -INDIGO-08031720192D

 14 14  0  0  0  0  0  0  0  0999 V2000
    0.0000    2.7713    0.0000 Cl  0  0  0  0  0  0  0  0  0  0  0  0
   -0.8000    1.3856    0.0000 C   0  0  0  0  0  0  0  0  0  0  0  0
    0.0000   -0.0000    0.0000 C   0  0  0  0  0  0  0  0  0  0  0  0
    1.6000   -0.0000    0.0000 C   0  0  0  0  0  0  0  0  0  0  0  0
    2.4000    1.3856    0.0000 H   0  0  0  0  0  0  0  0  0  0  0  0
    2.4000   -1.3856    0.0000 O   0  0  0  0  0  0  0  0  0  0  0  0
   -0.8000   -1.3856    0.0000 C   0  0  0  0  0  0  0  0  0  0  0  0
    0.0000   -2.7713    0.0000 H   0  0  0  0  0  0  0  0  0  0  0  0
   -2.4000   -1.3856    0.0000 C   0  0  0  0  0  0  0  0  0  0  0  0
   -3.2000   -2.7713    0.0000 Cl  0  0  0  0  0  0  0  0  0  0  0  0
   -3.2000   -0.0000    0.0000 C   0  0  0  0  0  0  0  0  0  0  0  0
   -4.8000   -0.0000    0.0000 H   0  0  0  0  0  0  0  0  0  0  0  0
   -2.4000    1.3856    0.0000 C   0  0  0  0  0  0  0  0  0  0  0  0
   -3.2000    2.7713    0.0000 H   0  0  0  0  0  0  0  0  0  0  0  0
  1  2  1  0  0  0  0
  2  3  1  0  0  0  0
  3  4  1  0  0  0  0
  4  5  1  0  0  0  0
  4  6  2  0  0  0  0
  3  7  2  0  0  0  0
  7  8  1  0  0  0  0
  7  9  1  0  0  0  0
  9 10  1  0  0  0  0
  9 11  2  0  0  0  0
 11 12  1  0  0  0  0
 11 13  1  0  0  0  0
 13  2  2  0  0  0  0
 13 14  1  0  0  0  0
M  END
> <ChemID>
105036

> <source_casrn>
6361-23-5

> <CAS>
6361-23-5

> <SMILES>
O=Cc1cc(Cl)ccc1Cl

> <NAME>
2,5-Dichloro-benzaldehyde

> <preferred_name>
2,5-Dichlorobenzaldehyde

> <iupac>
2,5-Dichlorobenzaldehyde

> <MPID>
23917

> <dsstox_substance_id>
DTXSID30212992

> <Canonical_QSARr>
O=Cc1cc(Cl)ccc1Cl

> <InChI_Code_QSARr>
InChI=1S/C7H4Cl2O/c8-6-1-2-7(9)5(3-6)4-10/h1-4H

> <InChI Key_QSARr>
BUXHYMZMVMNDMG-UHFFFAOYSA-N

> <Salt_Solvent>
?

> <BP>
232.0

$$$$
105041
  -INDIGO-08031720192D

 28 27  0  0  0  0  0  0  0  0999 V2000
    1.3857   -2.4000    0.0000 P   0  0  0  0  0  0  0  0  0  0  0  0
    2.7713   -1.6000    0.0000 O   0  0  0  0  0  0  0  0  0  0  0  0
    2.7713   -3.1999    0.0000 O   0  0  0  0  0  0  0  0  0  0  0  0
    2.7713   -4.8000    0.0000 H   0  0  0  0  0  0  0  0  0  0  0  0
    1.3857   -4.0000    0.0000 O   0  0  0  0  0  0  0  0  0  0  0  0
    0.0001   -4.8000    0.0000 H   0  0  0  0  0  0  0  0  0  0  0  0
    0.0001   -1.6000    0.0000 C   0  0  0  0  0  0  0  0  0  0  0  0
   -0.9740   -2.8693    0.0000 H   0  0  0  0  0  0  0  0  0  0  0  0
   -1.5863   -1.8089    0.0000 H   0  0  0  0  0  0  0  0  0  0  0  0
    0.0001    0.0001    0.0000 N   0  0  0  0  0  0  0  0  0  0  0  0
    1.3857    0.8000    0.0000 C   0  0  0  0  0  0  0  0  0  0  0  0
    2.9720    0.5911    0.0000 H   0  0  0  0  0  0  0  0  0  0  0  0
    2.3597   -0.4694    0.0000 H   0  0  0  0  0  0  0  0  0  0  0  0
    1.3857    2.4000    0.0000 P   0  0  0  0  0  0  0  0  0  0  0  0
    0.0001    3.2001    0.0000 O   0  0  0  0  0  0  0  0  0  0  0  0
    1.3857    4.0000    0.0000 O   0  0  0  0  0  0  0  0  0  0  0  0
    2.7713    4.8000    0.0000 H   0  0  0  0  0  0  0  0  0  0  0  0
    2.7713    3.2001    0.0000 O   0  0  0  0  0  0  0  0  0  0  0  0
    4.1569    2.4000    0.0000 H   0  0  0  0  0  0  0  0  0  0  0  0
   -1.3857    0.8000    0.0000 C   0  0  0  0  0  0  0  0  0  0  0  0
   -1.9980    2.2782    0.0000 H   0  0  0  0  0  0  0  0  0  0  0  0
   -0.7734    2.2782    0.0000 H   0  0  0  0  0  0  0  0  0  0  0  0
   -2.7713    0.0001    0.0000 P   0  0  0  0  0  0  0  0  0  0  0  0
   -2.7713   -1.6000    0.0000 O   0  0  0  0  0  0  0  0  0  0  0  0
   -4.1569   -0.8000    0.0000 O   0  0  0  0  0  0  0  0  0  0  0  0
   -5.5426    0.0001    0.0000 H   0  0  0  0  0  0  0  0  0  0  0  0
   -4.1569    0.8000    0.0000 O   0  0  0  0  0  0  0  0  0  0  0  0
   -4.1569    2.4000    0.0000 H   0  0  0  0  0  0  0  0  0  0  0  0
  1  2  2  0  0  0  0
  1  3  1  0  0  0  0
  3  4  1  0  0  0  0
  1  5  1  0  0  0  0
  5  6  1  0  0  0  0
  1  7  1  0  0  0  0
  7  8  1  0  0  0  0
  7  9  1  0  0  0  0
  7 10  1  0  0  0  0
 10 11  1  0  0  0  0
 11 12  1  0  0  0  0
 11 13  1  0  0  0  0
 11 14  1  0  0  0  0
 14 15  2  0  0  0  0
 14 16  1  0  0  0  0
 16 17  1  0  0  0  0
 14 18  1  0  0  0  0
 18 19  1  0  0  0  0
 10 20  1  0  0  0  0
 20 21  1  0  0  0  0
 20 22  1  0  0  0  0
 20 23  1  0  0  0  0
 23 24  2  0  0  0  0
 23 25  1  0  0  0  0
 25 26  1  0  0  0  0
 23 27  1  0  0  0  0
 27 28  1  0  0  0  0
M  END
> <ChemID>
105041

> <source_casrn>
6419-19-8

> <CAS>
6419-19-8

> <SMILES>
OP(O)(=O)CN(CP(O)(O)=O)CP(O)(O)=O

> <NAME>
(Nitrilotris(methylene))triphosphonic acid

> <preferred_name>
Aminotrimethylene phosphonic acid

> <iupac>
(nitrilotrimethanediyl)tris(phosphonic acid)

> <MPID>
23922

> <dsstox_substance_id>
DTXSID2027624

> <Canonical_QSARr>
OP(O)(=O)CN(CP(O)(O)=O)CP(O)(O)=O

> <InChI_Code_QSARr>
InChI=1S/C3H12NO9P3/c5-14(6,7)1-4(2-15(8,9)10)3-16(11,12)13/h1-3H2,(H2,5,6,7)(H2,8,9,10)(H2,11,12,13)

> <InChI Key_QSARr>
YDONNITUKPKTIG-UHFFFAOYSA-N

> <Salt_Solvent>
?

> <BP>
480.0

$$$$
105047
  -INDIGO-08031720192D

 17 17  0  0  0  0  0  0  0  0999 V2000
   -1.6000    0.0000    0.0000 O   0  0  0  0  0  0  0  0  0  0  0  0
    0.0000    0.0000    0.0000 C   0  0  0  0  0  0  0  0  0  0  0  0
    0.8000    1.3856    0.0000 C   0  0  0  0  0  0  0  0  0  0  0  0
    0.0000    2.7713    0.0000 C   0  0  0  0  0  0  0  0  0  0  0  0
   -0.8000    4.1569    0.0000 N   0  0  0  0  0  0  0  0  0  0  0  0
    2.4000    1.3856    0.0000 C   0  0  0  0  0  0  0  0  0  0  0  0
    3.2001    2.7713    0.0000 H   0  0  0  0  0  0  0  0  0  0  0  0
    3.2001    0.0000    0.0000 C   0  0  0  0  0  0  0  0  0  0  0  0
    4.8000    0.0000    0.0000 H   0  0  0  0  0  0  0  0  0  0  0  0
    2.4000   -1.3856    0.0000 C   0  0  0  0  0  0  0  0  0  0  0  0
    3.2001   -2.7713    0.0000 H   0  0  0  0  0  0  0  0  0  0  0  0
    0.8000   -1.3856    0.0000 C   0  0  0  0  0  0  0  0  0  0  0  0
    0.0000   -2.7713    0.0000 H   0  0  0  0  0  0  0  0  0  0  0  0
   -2.4001   -1.3856    0.0000 C   0  0  0  0  0  0  0  0  0  0  0  0
   -4.0000   -1.3856    0.0000 H   0  0  0  0  0  0  0  0  0  0  0  0
   -3.2000   -2.7713    0.0000 H   0  0  0  0  0  0  0  0  0  0  0  0
   -3.2000    0.0000    0.0000 H   0  0  0  0  0  0  0  0  0  0  0  0
  1  2  1  0  0  0  0
  2  3  1  0  0  0  0
  3  4  1  0  0  0  0
  4  5  3  0  0  0  0
  3  6  2  0  0  0  0
  6  7  1  0  0  0  0
  6  8  1  0  0  0  0
  8  9  1  0  0  0  0
  8 10  2  0  0  0  0
 10 11  1  0  0  0  0
 10 12  1  0  0  0  0
 12  2  2  0  0  0  0
 12 13  1  0  0  0  0
  1 14  1  0  0  0  0
 14 15  1  0  0  0  0
 14 16  1  0  0  0  0
 14 17  1  0  0  0  0
M  END
> <ChemID>
105047

> <source_casrn>
6609-56-9

> <CAS>
6609-56-9

> <SMILES>
COc1ccccc1C#N

> <NAME>
2-Methoxy-benzonitrile

> <preferred_name>
2-Methoxybenzonitrile

> <iupac>
2-Methoxybenzonitrile

> <MPID>
23927

> <dsstox_substance_id>
DTXSID10216291

> <Canonical_QSARr>
COc1ccccc1C#N

> <InChI_Code_QSARr>
InChI=1S/C8H7NO/c1-10-8-5-3-2-4-7(8)6-9/h2-5H,1H3

> <InChI Key_QSARr>
FSTPMFASNVISBU-UHFFFAOYSA-N

> <Salt_Solvent>
?

> <BP>
255.5

$$$$
105051
  -INDIGO-08031720192D

 22 23  0  0  0  0  0  0  0  0999 V2000
   -1.3857    2.4000    0.0000 N   0  0  0  0  0  0  0  0  0  0  0  0
    0.0001    1.6000    0.0000 C   0  0  0  0  0  0  0  0  0  0  0  0
    0.0001    0.0000    0.0000 C   0  0  0  0  0  0  0  0  0  0  0  0
    1.3857   -0.8000    0.0000 C   0  0  0  0  0  0  0  0  0  0  0  0
    1.3857   -2.4000    0.0000 H   0  0  0  0  0  0  0  0  0  0  0  0
    2.7713    0.0000    0.0000 C   0  0  0  0  0  0  0  0  0  0  0  0
    4.1569   -0.8000    0.0000 H   0  0  0  0  0  0  0  0  0  0  0  0
    2.7713    1.6000    0.0000 C   0  0  0  0  0  0  0  0  0  0  0  0
    4.1569    2.4000    0.0000 H   0  0  0  0  0  0  0  0  0  0  0  0
    1.3857    2.4000    0.0000 C   0  0  0  0  0  0  0  0  0  0  0  0
    1.3857    4.0000    0.0000 H   0  0  0  0  0  0  0  0  0  0  0  0
   -1.3857   -0.8000    0.0000 C   0  0  0  0  0  0  0  0  0  0  0  0
   -1.3857   -2.4000    0.0000 N   0  0  0  0  0  0  0  0  0  0  0  0
   -2.7713   -3.2000    0.0000 H   0  0  0  0  0  0  0  0  0  0  0  0
    0.0001   -3.2000    0.0000 H   0  0  0  0  0  0  0  0  0  0  0  0
   -2.7713    0.0000    0.0000 C   0  0  0  0  0  0  0  0  0  0  0  0
   -4.1569   -0.8000    0.0000 H   0  0  0  0  0  0  0  0  0  0  0  0
   -2.7713    1.6000    0.0000 C   0  0  0  0  0  0  0  0  0  0  0  0
   -4.1569    2.4000    0.0000 C   0  0  0  0  0  0  0  0  0  0  0  0
   -5.5426    3.2000    0.0000 H   0  0  0  0  0  0  0  0  0  0  0  0
   -4.1569    4.0000    0.0000 H   0  0  0  0  0  0  0  0  0  0  0  0
   -5.5426    1.6000    0.0000 H   0  0  0  0  0  0  0  0  0  0  0  0
  1  2  1  0  0  0  0
  2  3  1  0  0  0  0
  3  4  2  0  0  0  0
  4  5  1  0  0  0  0
  4  6  1  0  0  0  0
  6  7  1  0  0  0  0
  6  8  2  0  0  0  0
  8  9  1  0  0  0  0
  8 10  1  0  0  0  0
 10  2  2  0  0  0  0
 10 11  1  0  0  0  0
  3 12  1  0  0  0  0
 12 13  1  0  0  0  0
 13 14  1  0  0  0  0
 13 15  1  0  0  0  0
 12 16  2  0  0  0  0
 16 17  1  0  0  0  0
 16 18  1  0  0  0  0
 18  1  2  0  0  0  0
 18 19  1  0  0  0  0
 19 20  1  0  0  0  0
 19 21  1  0  0  0  0
 19 22  1  0  0  0  0
M  END
> <ChemID>
105051

> <source_casrn>
6628-04-2

> <CAS>
6628-04-2

> <SMILES>
Cc1cc(N)c2ccccc2[n]1

> <NAME>
2-Methyl-quinolin-4-ylamine

> <preferred_name>
4-Amino-2-methylquinoline

> <iupac>
2-methylquinolin-4-amine

> <MPID>
23931

> <dsstox_substance_id>
DTXSID50216477

> <Canonical_QSARr>
Cc1cc(N)c2ccccc2[n]1

> <InChI_Code_QSARr>
InChI=1S/C10H10N2/c1-7-6-9(11)8-4-2-3-5-10(8)12-7/h2-6H,1H3,(H2,11,12)

> <InChI Key_QSARr>
COCFIBRMFPWUDW-UHFFFAOYSA-N

> <Salt_Solvent>
?

> <BP>
333.0

$$$$
105055
  -INDIGO-08031720192D

 14 14  0  0  0  0  0  0  0  0999 V2000
    2.4000   -1.3856    0.0000 O   0  0  0  0  0  0  0  0  0  0  0  0
    1.6000   -0.0000    0.0000 C   0  0  0  0  0  0  0  0  0  0  0  0
    2.4000    1.3856    0.0000 H   0  0  0  0  0  0  0  0  0  0  0  0
    0.0000   -0.0000    0.0000 C   0  0  0  0  0  0  0  0  0  0  0  0
   -0.8000    1.3856    0.0000 C   0  0  0  0  0  0  0  0  0  0  0  0
    0.0000    2.7713    0.0000 Br  0  0  0  0  0  0  0  0  0  0  0  0
   -2.4000    1.3856    0.0000 C   0  0  0  0  0  0  0  0  0  0  0  0
   -3.2000    2.7713    0.0000 H   0  0  0  0  0  0  0  0  0  0  0  0
   -3.2000   -0.0000    0.0000 C   0  0  0  0  0  0  0  0  0  0  0  0
   -4.8000   -0.0000    0.0000 H   0  0  0  0  0  0  0  0  0  0  0  0
   -2.4000   -1.3856    0.0000 C   0  0  0  0  0  0  0  0  0  0  0  0
   -3.2000   -2.7713    0.0000 H   0  0  0  0  0  0  0  0  0  0  0  0
   -0.8000   -1.3856    0.0000 C   0  0  0  0  0  0  0  0  0  0  0  0
    0.0000   -2.7713    0.0000 H   0  0  0  0  0  0  0  0  0  0  0  0
  1  2  2  0  0  0  0
  2  3  1  0  0  0  0
  2  4  1  0  0  0  0
  4  5  1  0  0  0  0
  5  6  1  0  0  0  0
  5  7  2  0  0  0  0
  7  8  1  0  0  0  0
  7  9  1  0  0  0  0
  9 10  1  0  0  0  0
  9 11  2  0  0  0  0
 11 12  1  0  0  0  0
 11 13  1  0  0  0  0
 13  4  2  0  0  0  0
 13 14  1  0  0  0  0
M  END
> <ChemID>
105055

> <source_casrn>
6630-33-7

> <CAS>
6630-33-7

> <SMILES>
O=Cc1ccccc1Br

> <NAME>
Benzaldehyde, 2-bromo-

> <preferred_name>
Benzaldehyde, 2-bromo-

> <iupac>
2-Bromobenzaldehyde

> <MPID>
23935

> <dsstox_substance_id>
DTXSID8064430

> <Canonical_QSARr>
O=Cc1ccccc1Br

> <InChI_Code_QSARr>
InChI=1S/C7H5BrO/c8-7-4-2-1-3-6(7)5-9/h1-5H

> <InChI Key_QSARr>
NDOPHXWIAZIXPR-UHFFFAOYSA-N

> <Salt_Solvent>
?

> <BP>
230.0

$$$$
105060
  -INDIGO-08031720192D

 25 25  0  0  0  0  0  0  0  0999 V2000
    1.0705   -1.1891    0.0000 C   0  0  0  0  0  0  0  0  0  0  0  0
    2.1412    0.0000    0.0000 H   0  0  0  0  0  0  0  0  0  0  0  0
    0.0000    0.0000    0.0000 C   0  0  0  0  0  0  0  0  0  0  0  0
    1.2944    0.9404    0.0000 C   0  0  0  0  0  0  0  0  0  0  0  0
    2.5888    1.8810    0.0000 H   0  0  0  0  0  0  0  0  0  0  0  0
    1.1271    2.5317    0.0000 H   0  0  0  0  0  0  0  0  0  0  0  0
    2.8905    0.8288    0.0000 H   0  0  0  0  0  0  0  0  0  0  0  0
   -0.7999    1.3856    0.0000 C   0  0  0  0  0  0  0  0  0  0  0  0
   -1.6001    2.7713    0.0000 H   0  0  0  0  0  0  0  0  0  0  0  0
   -2.4000    1.3856    0.0000 H   0  0  0  0  0  0  0  0  0  0  0  0
    0.0000    2.7713    0.0000 H   0  0  0  0  0  0  0  0  0  0  0  0
   -1.4617   -0.6508    0.0000 C   0  0  0  0  0  0  0  0  0  0  0  0
   -2.8472    0.1492    0.0000 C   0  0  0  0  0  0  0  0  0  0  0  0
   -4.2330   -0.6508    0.0000 H   0  0  0  0  0  0  0  0  0  0  0  0
   -4.2330    0.9492    0.0000 H   0  0  0  0  0  0  0  0  0  0  0  0
   -2.8472   -1.4507    0.0000 H   0  0  0  0  0  0  0  0  0  0  0  0
   -1.2944   -2.2420    0.0000 C   0  0  0  0  0  0  0  0  0  0  0  0
   -2.4834   -3.3126    0.0000 H   0  0  0  0  0  0  0  0  0  0  0  0
    0.2706   -2.5747    0.0000 C   0  0  0  0  0  0  0  0  0  0  0  0
   -0.2238   -4.0964    0.0000 H   0  0  0  0  0  0  0  0  0  0  0  0
    1.7323   -3.2254    0.0000 H   0  0  0  0  0  0  0  0  0  0  0  0
    2.5086   -1.8905    0.0000 C   0  0  0  0  0  0  0  0  0  0  0  0
    2.8958   -3.4429    0.0000 O   0  0  0  0  0  0  0  0  0  0  0  0
    3.8351   -0.9957    0.0000 O   0  0  0  0  0  0  0  0  0  0  0  0
    5.2732   -1.6971    0.0000 H   0  0  0  0  0  0  0  0  0  0  0  0
  1  2  1  0  0  0  0
  1  3  1  0  0  0  0
  3  4  1  0  0  0  0
  4  5  1  0  0  0  0
  4  6  1  0  0  0  0
  4  7  1  0  0  0  0
  3  8  1  0  0  0  0
  8  9  1  0  0  0  0
  8 10  1  0  0  0  0
  8 11  1  0  0  0  0
  3 12  1  0  0  0  0
 12 13  1  0  0  0  0
 13 14  1  0  0  0  0
 13 15  1  0  0  0  0
 13 16  1  0  0  0  0
 12 17  2  0  0  0  0
 17 18  1  0  0  0  0
 17 19  1  0  0  0  0
 19  1  1  0  0  0  0
 19 20  1  0  0  0  0
 19 21  1  0  0  0  0
  1 22  1  0  0  0  0
 22 23  2  0  0  0  0
 22 24  1  0  0  0  0
 24 25  1  0  0  0  0
M  END
> <ChemID>
105060

> <source_casrn>
6709-22-4

> <CAS>
NOCAS_871169

> <SMILES>
CC1=CCC(C(O)=O)C1(C)C

> <NAME>
2,2,3-Trimethyl-cyclopent-3-enecarboxylic acid

> <preferred_name>


> <iupac>


> <MPID>
23940

> <dsstox_substance_id>
DTXSID30871169

> <Canonical_QSARr>
CC1=CCC(C(O)=O)C1(C)C

> <InChI_Code_QSARr>
InChI=1S/C9H14O2/c1-6-4-5-7(8(10)11)9(6,2)3/h4,7H,5H2,1-3H3,(H,10,11)

> <InChI Key_QSARr>
ZRVJUIDXQSYDBJ-UHFFFAOYSA-N

> <Salt_Solvent>
?

> <BP>
241.5

$$$$
105064
  -INDIGO-08031720192D

 30 30  0  0  0  0  0  0  0  0999 V2000
   -2.7293   -0.4812    0.0000 O   0  0  0  0  0  0  0  0  0  0  0  0
   -1.5036    0.5473    0.0000 C   0  0  0  0  0  0  0  0  0  0  0  0
   -1.7813    2.1229    0.0000 O   0  0  0  0  0  0  0  0  0  0  0  0
    0.0000   -0.0000    0.0000 C   0  0  0  0  0  0  0  0  0  0  0  0
   -1.2257   -1.0285    0.0000 H   0  0  0  0  0  0  0  0  0  0  0  0
    0.8000    1.3857    0.0000 C   0  0  0  0  0  0  0  0  0  0  0  0
   -0.7036    1.9329    0.0000 H   0  0  0  0  0  0  0  0  0  0  0  0
    1.0778    2.9613    0.0000 H   0  0  0  0  0  0  0  0  0  0  0  0
    2.4000    1.3857    0.0000 C   0  0  0  0  0  0  0  0  0  0  0  0
    2.1223    2.9613    0.0000 H   0  0  0  0  0  0  0  0  0  0  0  0
    3.9034    1.9329    0.0000 H   0  0  0  0  0  0  0  0  0  0  0  0
    3.2000   -0.0000    0.0000 C   0  0  0  0  0  0  0  0  0  0  0  0
    4.4257    1.0285    0.0000 H   0  0  0  0  0  0  0  0  0  0  0  0
    4.4257   -1.0285    0.0000 H   0  0  0  0  0  0  0  0  0  0  0  0
    2.4000   -1.3857    0.0000 C   0  0  0  0  0  0  0  0  0  0  0  0
    3.9034   -1.9329    0.0000 H   0  0  0  0  0  0  0  0  0  0  0  0
    2.1223   -2.9613    0.0000 H   0  0  0  0  0  0  0  0  0  0  0  0
    0.8000   -1.3857    0.0000 C   0  0  0  0  0  0  0  0  0  0  0  0
    1.0778   -2.9613    0.0000 H   0  0  0  0  0  0  0  0  0  0  0  0
   -0.7036   -1.9329    0.0000 H   0  0  0  0  0  0  0  0  0  0  0  0
   -4.2327    0.0660    0.0000 C   0  0  0  0  0  0  0  0  0  0  0  0
   -3.8865    1.6280    0.0000 H   0  0  0  0  0  0  0  0  0  0  0  0
   -5.0923    1.4154    0.0000 H   0  0  0  0  0  0  0  0  0  0  0  0
   -5.4583   -0.9624    0.0000 C   0  0  0  0  0  0  0  0  0  0  0  0
   -5.8047   -2.5246    0.0000 H   0  0  0  0  0  0  0  0  0  0  0  0
   -4.5987   -2.3119    0.0000 H   0  0  0  0  0  0  0  0  0  0  0  0
   -6.9620   -0.4152    0.0000 C   0  0  0  0  0  0  0  0  0  0  0  0
   -8.4654    0.1320    0.0000 H   0  0  0  0  0  0  0  0  0  0  0  0
   -8.1876   -1.4437    0.0000 H   0  0  0  0  0  0  0  0  0  0  0  0
   -7.2397    1.1604    0.0000 H   0  0  0  0  0  0  0  0  0  0  0  0
  1  2  1  0  0  0  0
  2  3  2  0  0  0  0
  2  4  1  0  0  0  0
  4  5  1  0  0  0  0
  4  6  1  0  0  0  0
  6  7  1  0  0  0  0
  6  8  1  0  0  0  0
  6  9  1  0  0  0  0
  9 10  1  0  0  0  0
  9 11  1  0  0  0  0
  9 12  1  0  0  0  0
 12 13  1  0  0  0  0
 12 14  1  0  0  0  0
 12 15  1  0  0  0  0
 15 16  1  0  0  0  0
 15 17  1  0  0  0  0
 15 18  1  0  0  0  0
 18  4  1  0  0  0  0
 18 19  1  0  0  0  0
 18 20  1  0  0  0  0
  1 21  1  0  0  0  0
 21 22  1  0  0  0  0
 21 23  1  0  0  0  0
 21 24  1  0  0  0  0
 24 25  1  0  0  0  0
 24 26  1  0  0  0  0
 24 27  1  0  0  0  0
 27 28  1  0  0  0  0
 27 29  1  0  0  0  0
 27 30  1  0  0  0  0
M  END
> <ChemID>
105064

> <source_casrn>
6739-34-0

> <CAS>
6739-34-0

> <SMILES>
CCCOC(=O)C1CCCCC1

> <NAME>
Cyclohexanecarboxylic acid propyl ester

> <preferred_name>
Propyl cyclohexanecarboxylate

> <iupac>
Propyl cyclohexanecarboxylate

> <MPID>
23944

> <dsstox_substance_id>
DTXSID80217750

> <Canonical_QSARr>
CCCOC(=O)C1CCCCC1

> <InChI_Code_QSARr>
InChI=1S/C10H18O2/c1-2-8-12-10(11)9-6-4-3-5-7-9/h9H,2-8H2,1H3

> <InChI Key_QSARr>
UBEVLTHYAFYOEU-UHFFFAOYSA-N

> <Salt_Solvent>
?

> <BP>
215.5

$$$$
105068
  -INDIGO-08031720192D

 18 18  0  0  0  0  0  0  0  0999 V2000
    1.3856    2.4000    0.0000 Cl  0  0  0  0  0  0  0  0  0  0  0  0
    1.3856    0.8000    0.0000 C   0  0  0  0  0  0  0  0  0  0  0  0
    2.7713   -0.0000    0.0000 C   0  0  0  0  0  0  0  0  0  0  0  0
    4.1570    0.8000    0.0000 C   0  0  0  0  0  0  0  0  0  0  0  0
    5.5426    1.6000    0.0000 H   0  0  0  0  0  0  0  0  0  0  0  0
    5.5426   -0.0000    0.0000 H   0  0  0  0  0  0  0  0  0  0  0  0
    4.1570    2.4000    0.0000 H   0  0  0  0  0  0  0  0  0  0  0  0
    2.7713   -1.6000    0.0000 C   0  0  0  0  0  0  0  0  0  0  0  0
    4.1569   -2.4000    0.0000 H   0  0  0  0  0  0  0  0  0  0  0  0
    1.3856   -2.4000    0.0000 C   0  0  0  0  0  0  0  0  0  0  0  0
    1.3856   -4.0000    0.0000 H   0  0  0  0  0  0  0  0  0  0  0  0
    0.0000   -1.6000    0.0000 C   0  0  0  0  0  0  0  0  0  0  0  0
   -1.3856   -2.4000    0.0000 H   0  0  0  0  0  0  0  0  0  0  0  0
    0.0000   -0.0000    0.0000 C   0  0  0  0  0  0  0  0  0  0  0  0
   -1.3856    0.8000    0.0000 C   0  0  0  0  0  0  0  0  0  0  0  0
   -2.7713    1.6000    0.0000 H   0  0  0  0  0  0  0  0  0  0  0  0
   -2.7713   -0.0000    0.0000 H   0  0  0  0  0  0  0  0  0  0  0  0
   -1.3856    2.4000    0.0000 H   0  0  0  0  0  0  0  0  0  0  0  0
  1  2  1  0  0  0  0
  2  3  1  0  0  0  0
  3  4  1  0  0  0  0
  4  5  1  0  0  0  0
  4  6  1  0  0  0  0
  4  7  1  0  0  0  0
  3  8  2  0  0  0  0
  8  9  1  0  0  0  0
  8 10  1  0  0  0  0
 10 11  1  0  0  0  0
 10 12  2  0  0  0  0
 12 13  1  0  0  0  0
 12 14  1  0  0  0  0
 14  2  2  0  0  0  0
 14 15  1  0  0  0  0
 15 16  1  0  0  0  0
 15 17  1  0  0  0  0
 15 18  1  0  0  0  0
M  END
> <ChemID>
105068

> <source_casrn>
6781-98-2

> <CAS>
6781-98-2

> <SMILES>
Cc1cccc(C)c1Cl

> <NAME>
BENZENE, 2-CHLORO-1,3-DIMETHYL-

> <preferred_name>
2-Chloro-1,3-dimethylbenzene

> <iupac>
2-chloro-1,3-dimethylbenzene

> <MPID>
23948

> <dsstox_substance_id>
DTXSID40218061

> <Canonical_QSARr>
Cc1cccc(C)c1Cl

> <InChI_Code_QSARr>
InChI=1S/C8H9Cl/c1-6-4-3-5-7(2)8(6)9/h3-5H,1-2H3

> <InChI Key_QSARr>
VDXLAYAQGYCQEO-UHFFFAOYSA-N

> <Salt_Solvent>
?

> <BP>
186.0

$$$$
105072
  -INDIGO-08031720192D

 25 25  0  0  0  0  0  0  0  0999 V2000
   -2.7713   -0.0000    0.0000 N   0  0  0  0  0  0  0  0  0  0  0  0
   -1.3857    0.8000    0.0000 C   0  0  0  0  0  0  0  0  0  0  0  0
   -2.4142    2.0257    0.0000 H   0  0  0  0  0  0  0  0  0  0  0  0
   -0.3572    2.0257    0.0000 H   0  0  0  0  0  0  0  0  0  0  0  0
   -0.0001   -0.0000    0.0000 C   0  0  0  0  0  0  0  0  0  0  0  0
    0.5473    1.5035    0.0000 H   0  0  0  0  0  0  0  0  0  0  0  0
    1.5756    0.2778    0.0000 N   0  0  0  0  0  0  0  0  0  0  0  0
    2.1230    1.7814    0.0000 H   0  0  0  0  0  0  0  0  0  0  0  0
    2.6042   -0.9478    0.0000 H   0  0  0  0  0  0  0  0  0  0  0  0
   -0.0001   -1.6000    0.0000 C   0  0  0  0  0  0  0  0  0  0  0  0
    1.5756   -1.3221    0.0000 H   0  0  0  0  0  0  0  0  0  0  0  0
    0.5473   -3.1035    0.0000 H   0  0  0  0  0  0  0  0  0  0  0  0
   -1.3857   -2.4000    0.0000 C   0  0  0  0  0  0  0  0  0  0  0  0
   -0.3572   -3.6257    0.0000 H   0  0  0  0  0  0  0  0  0  0  0  0
   -2.4142   -3.6257    0.0000 H   0  0  0  0  0  0  0  0  0  0  0  0
   -2.7713   -1.6000    0.0000 C   0  0  0  0  0  0  0  0  0  0  0  0
   -3.3185   -3.1035    0.0000 H   0  0  0  0  0  0  0  0  0  0  0  0
   -4.3470   -1.3221    0.0000 H   0  0  0  0  0  0  0  0  0  0  0  0
   -4.1569    0.8000    0.0000 C   0  0  0  0  0  0  0  0  0  0  0  0
   -3.5446    2.2782    0.0000 H   0  0  0  0  0  0  0  0  0  0  0  0
   -4.7692    2.2782    0.0000 H   0  0  0  0  0  0  0  0  0  0  0  0
   -5.5426   -0.0000    0.0000 C   0  0  0  0  0  0  0  0  0  0  0  0
   -6.9282    0.8000    0.0000 H   0  0  0  0  0  0  0  0  0  0  0  0
   -6.9282   -0.8000    0.0000 H   0  0  0  0  0  0  0  0  0  0  0  0
   -5.5426    1.6000    0.0000 H   0  0  0  0  0  0  0  0  0  0  0  0
  1  2  1  0  0  0  0
  2  3  1  0  0  0  0
  2  4  1  0  0  0  0
  2  5  1  0  0  0  0
  5  6  1  0  0  0  0
  5  7  1  0  0  0  0
  7  8  1  0  0  0  0
  7  9  1  0  0  0  0
  5 10  1  0  0  0  0
 10 11  1  0  0  0  0
 10 12  1  0  0  0  0
 10 13  1  0  0  0  0
 13 14  1  0  0  0  0
 13 15  1  0  0  0  0
 13 16  1  0  0  0  0
 16  1  1  0  0  0  0
 16 17  1  0  0  0  0
 16 18  1  0  0  0  0
  1 19  1  0  0  0  0
 19 20  1  0  0  0  0
 19 21  1  0  0  0  0
 19 22  1  0  0  0  0
 22 23  1  0  0  0  0
 22 24  1  0  0  0  0
 22 25  1  0  0  0  0
M  END
> <ChemID>
105072

> <source_casrn>
6789-94-2

> <CAS>
NOCAS_871170

> <SMILES>
CCN1CC(N)CCC1

> <NAME>
3-PIPERIDINAMINE, 1-ETHYL-

> <preferred_name>


> <iupac>


> <MPID>
23952

> <dsstox_substance_id>
DTXSID40871170

> <Canonical_QSARr>
CCN1CC(N)CCC1

> <InChI_Code_QSARr>
InChI=1S/C7H16N2/c1-2-9-5-3-4-7(8)6-9/h7H,2-6,8H2,1H3

> <InChI Key_QSARr>
WAKUKXKZEXFXJP-UHFFFAOYSA-N

> <Salt_Solvent>
?

> <BP>
155.0

$$$$
105076
  -INDIGO-08031720192D

 39 38  0  0  0  0  0  0  0  0999 V2000
    6.9282   -0.8000    0.0000 C   0  0  0  0  0  0  0  0  0  0  0  0
    8.3138   -1.6000    0.0000 H   0  0  0  0  0  0  0  0  0  0  0  0
    8.3138    0.0000    0.0000 H   0  0  0  0  0  0  0  0  0  0  0  0
    6.9282   -2.4000    0.0000 H   0  0  0  0  0  0  0  0  0  0  0  0
    5.5426    0.0000    0.0000 C   0  0  0  0  0  0  0  0  0  0  0  0
    6.1548    1.4782    0.0000 H   0  0  0  0  0  0  0  0  0  0  0  0
    4.9302    1.4782    0.0000 H   0  0  0  0  0  0  0  0  0  0  0  0
    4.1570   -0.8000    0.0000 C   0  0  0  0  0  0  0  0  0  0  0  0
    3.5446   -2.2782    0.0000 H   0  0  0  0  0  0  0  0  0  0  0  0
    4.7692   -2.2782    0.0000 H   0  0  0  0  0  0  0  0  0  0  0  0
    2.7712    0.0000    0.0000 C   0  0  0  0  0  0  0  0  0  0  0  0
    3.3836    1.4782    0.0000 H   0  0  0  0  0  0  0  0  0  0  0  0
    2.1590    1.4782    0.0000 H   0  0  0  0  0  0  0  0  0  0  0  0
    1.3856   -0.8000    0.0000 C   0  0  0  0  0  0  0  0  0  0  0  0
    0.7735   -2.2782    0.0000 H   0  0  0  0  0  0  0  0  0  0  0  0
    1.9980   -2.2782    0.0000 H   0  0  0  0  0  0  0  0  0  0  0  0
   -0.0000    0.0000    0.0000 C   0  0  0  0  0  0  0  0  0  0  0  0
   -0.7999   -1.3857    0.0000 H   0  0  0  0  0  0  0  0  0  0  0  0
   -1.3856    0.8000    0.0000 C   0  0  0  0  0  0  0  0  0  0  0  0
   -0.7732    2.2782    0.0000 H   0  0  0  0  0  0  0  0  0  0  0  0
   -1.9980    2.2782    0.0000 H   0  0  0  0  0  0  0  0  0  0  0  0
   -2.7712    0.0000    0.0000 C   0  0  0  0  0  0  0  0  0  0  0  0
   -3.3836   -1.4782    0.0000 H   0  0  0  0  0  0  0  0  0  0  0  0
   -2.1591   -1.4782    0.0000 H   0  0  0  0  0  0  0  0  0  0  0  0
   -4.1568    0.8000    0.0000 C   0  0  0  0  0  0  0  0  0  0  0  0
   -3.5447    2.2782    0.0000 H   0  0  0  0  0  0  0  0  0  0  0  0
   -4.7692    2.2782    0.0000 H   0  0  0  0  0  0  0  0  0  0  0  0
   -5.5427    0.0000    0.0000 C   0  0  0  0  0  0  0  0  0  0  0  0
   -6.1548   -1.4782    0.0000 H   0  0  0  0  0  0  0  0  0  0  0  0
   -4.9303   -1.4782    0.0000 H   0  0  0  0  0  0  0  0  0  0  0  0
   -6.9283    0.8000    0.0000 C   0  0  0  0  0  0  0  0  0  0  0  0
   -6.3159    2.2782    0.0000 H   0  0  0  0  0  0  0  0  0  0  0  0
   -7.5404    2.2782    0.0000 H   0  0  0  0  0  0  0  0  0  0  0  0
   -8.3139    0.0000    0.0000 C   0  0  0  0  0  0  0  0  0  0  0  0
   -9.6995   -0.8000    0.0000 H   0  0  0  0  0  0  0  0  0  0  0  0
   -9.6995    0.8000    0.0000 H   0  0  0  0  0  0  0  0  0  0  0  0
   -8.3139   -1.6000    0.0000 H   0  0  0  0  0  0  0  0  0  0  0  0
    0.8001    1.3857    0.0000 O   0  0  0  0  0  0  0  0  0  0  0  0
    0.2529    2.8891    0.0000 H   0  0  0  0  0  0  0  0  0  0  0  0
  1  2  1  0  0  0  0
  1  3  1  0  0  0  0
  1  4  1  0  0  0  0
  1  5  1  0  0  0  0
  5  6  1  0  0  0  0
  5  7  1  0  0  0  0
  5  8  1  0  0  0  0
  8  9  1  0  0  0  0
  8 10  1  0  0  0  0
  8 11  1  0  0  0  0
 11 12  1  0  0  0  0
 11 13  1  0  0  0  0
 11 14  1  0  0  0  0
 14 15  1  0  0  0  0
 14 16  1  0  0  0  0
 14 17  1  0  0  0  0
 17 18  1  0  0  0  0
 17 19  1  0  0  0  0
 19 20  1  0  0  0  0
 19 21  1  0  0  0  0
 19 22  1  0  0  0  0
 22 23  1  0  0  0  0
 22 24  1  0  0  0  0
 22 25  1  0  0  0  0
 25 26  1  0  0  0  0
 25 27  1  0  0  0  0
 25 28  1  0  0  0  0
 28 29  1  0  0  0  0
 28 30  1  0  0  0  0
 28 31  1  0  0  0  0
 31 32  1  0  0  0  0
 31 33  1  0  0  0  0
 31 34  1  0  0  0  0
 34 35  1  0  0  0  0
 34 36  1  0  0  0  0
 34 37  1  0  0  0  0
 17 38  1  0  0  0  0
 38 39  1  0  0  0  0
M  END
> <ChemID>
105076

> <source_casrn>
6836-38-0

> <CAS>
NOCAS_871172

> <SMILES>
CCCCCCC(O)CCCCC

> <NAME>
6-DODECANOL

> <preferred_name>


> <iupac>


> <MPID>
23956

> <dsstox_substance_id>
DTXSID60871172

> <Canonical_QSARr>
CCCCCCC(O)CCCCC

> <InChI_Code_QSARr>
InChI=1S/C12H26O/c1-3-5-7-9-11-12(13)10-8-6-4-2/h12-13H,3-11H2,1-2H3

> <InChI Key_QSARr>
LRBBIFXICMMTOW-UHFFFAOYSA-N

> <Salt_Solvent>
?

> <BP>
225.0

$$$$
105081
  -INDIGO-08031720192D

 16 16  0  0  0  0  0  0  0  0999 V2000
   -0.5856    2.1856    0.0000 O   0  0  0  0  0  0  0  0  0  0  0  0
    0.8000    1.3856    0.0000 C   0  0  0  0  0  0  0  0  0  0  0  0
    1.6000    2.7713    0.0000 H   0  0  0  0  0  0  0  0  0  0  0  0
    2.3035    0.8384    0.0000 H   0  0  0  0  0  0  0  0  0  0  0  0
   -0.0000    0.0000    0.0000 C   0  0  0  0  0  0  0  0  0  0  0  0
    1.3856   -0.8000    0.0000 C   0  0  0  0  0  0  0  0  0  0  0  0
    2.7713   -1.6000    0.0000 H   0  0  0  0  0  0  0  0  0  0  0  0
    1.3856   -2.4000    0.0000 H   0  0  0  0  0  0  0  0  0  0  0  0
    2.7713   -0.0000    0.0000 H   0  0  0  0  0  0  0  0  0  0  0  0
   -0.8000   -1.3856    0.0000 C   0  0  0  0  0  0  0  0  0  0  0  0
   -1.6000   -2.7713    0.0000 H   0  0  0  0  0  0  0  0  0  0  0  0
   -0.0000   -2.7713    0.0000 H   0  0  0  0  0  0  0  0  0  0  0  0
   -2.4000   -1.3856    0.0000 H   0  0  0  0  0  0  0  0  0  0  0  0
   -1.3856    0.8000    0.0000 C   0  0  0  0  0  0  0  0  0  0  0  0
   -2.4141   -0.4257    0.0000 H   0  0  0  0  0  0  0  0  0  0  0  0
   -2.7713    1.6000    0.0000 H   0  0  0  0  0  0  0  0  0  0  0  0
  1  2  1  0  0  0  0
  2  3  1  0  0  0  0
  2  4  1  0  0  0  0
  2  5  1  0  0  0  0
  5  6  1  0  0  0  0
  6  7  1  0  0  0  0
  6  8  1  0  0  0  0
  6  9  1  0  0  0  0
  5 10  1  0  0  0  0
 10 11  1  0  0  0  0
 10 12  1  0  0  0  0
 10 13  1  0  0  0  0
  5 14  1  0  0  0  0
 14  1  1  0  0  0  0
 14 15  1  0  0  0  0
 14 16  1  0  0  0  0
M  END
> <ChemID>
105081

> <source_casrn>
6921-35-3

> <CAS>
6921-35-3

> <SMILES>
CC1(C)COC1

> <NAME>
OXETANE, 3,3-DIMETHYL-

> <preferred_name>
Oxetane, 3,3-dimethyl- (9CI)

> <iupac>
3,3-Dimethyloxetane

> <MPID>
23961

> <dsstox_substance_id>
DTXSID30219244

> <Canonical_QSARr>
CC1(C)COC1

> <InChI_Code_QSARr>
InChI=1S/C5H10O/c1-5(2)3-6-4-5/h3-4H2,1-2H3

> <InChI Key_QSARr>
RVGLUKRYMXEQAH-UHFFFAOYSA-N

> <Salt_Solvent>
?

> <BP>
80.6

$$$$
105085
  -INDIGO-08031720192D

 14 13  0  0  0  0  0  0  0  0999 V2000
    0.0000    0.0000    0.0000 C   0  0  0  0  0  0  0  0  0  0  0  0
    0.6123    1.4782    0.0000 H   0  0  0  0  0  0  0  0  0  0  0  0
   -0.6123    1.4782    0.0000 H   0  0  0  0  0  0  0  0  0  0  0  0
   -1.3856   -0.8000    0.0000 C   0  0  0  0  0  0  0  0  0  0  0  0
   -1.9980   -2.2782    0.0000 H   0  0  0  0  0  0  0  0  0  0  0  0
   -0.7733   -2.2782    0.0000 H   0  0  0  0  0  0  0  0  0  0  0  0
   -2.7713    0.0000    0.0000 C   0  0  0  0  0  0  0  0  0  0  0  0
   -4.1569    0.8000    0.0000 H   0  0  0  0  0  0  0  0  0  0  0  0
   -4.1569   -0.8000    0.0000 H   0  0  0  0  0  0  0  0  0  0  0  0
   -2.7713    1.6000    0.0000 Cl  0  0  0  0  0  0  0  0  0  0  0  0
    1.3856   -0.8000    0.0000 C   0  0  0  0  0  0  0  0  0  0  0  0
    2.7713   -1.6000    0.0000 H   0  0  0  0  0  0  0  0  0  0  0  0
    2.7713    0.0000    0.0000 H   0  0  0  0  0  0  0  0  0  0  0  0
    1.3856   -2.4000    0.0000 Br  0  0  0  0  0  0  0  0  0  0  0  0
  1  2  1  0  0  0  0
  1  3  1  0  0  0  0
  1  4  1  0  0  0  0
  4  5  1  0  0  0  0
  4  6  1  0  0  0  0
  4  7  1  0  0  0  0
  7  8  1  0  0  0  0
  7  9  1  0  0  0  0
  7 10  1  0  0  0  0
  1 11  1  0  0  0  0
 11 12  1  0  0  0  0
 11 13  1  0  0  0  0
 11 14  1  0  0  0  0
M  END
> <ChemID>
105085

> <source_casrn>
6940-78-9

> <CAS>
6940-78-9

> <SMILES>
ClCCCCBr

> <NAME>
Butane, 1-bromo-4-chloro-

> <preferred_name>
1-Bromo-4-chlorobutane

> <iupac>
1-bromo-4-chlorobutane

> <MPID>
23965

> <dsstox_substance_id>
DTXSID1049350

> <Canonical_QSARr>
ClCCCCBr

> <InChI_Code_QSARr>
InChI=1S/C4H8BrCl/c5-3-1-2-4-6/h1-4H2

> <InChI Key_QSARr>
NIDSRGCVYOEDFW-UHFFFAOYSA-N

> <Salt_Solvent>
?

> <BP>
175.0

$$$$
105089
  -INDIGO-08031720192D

 20 20  0  0  0  0  0  0  0  0999 V2000
   -4.1569    0.8000    0.0000 O   0  0  0  0  0  0  0  0  0  0  0  0
   -2.7712   -0.0000    0.0000 C   0  0  0  0  0  0  0  0  0  0  0  0
   -1.3856    0.8000    0.0000 C   0  0  0  0  0  0  0  0  0  0  0  0
   -1.3856    2.4000    0.0000 H   0  0  0  0  0  0  0  0  0  0  0  0
   -0.0001   -0.0000    0.0000 C   0  0  0  0  0  0  0  0  0  0  0  0
    1.3856    0.8000    0.0000 C   0  0  0  0  0  0  0  0  0  0  0  0
    1.9979    2.2782    0.0000 H   0  0  0  0  0  0  0  0  0  0  0  0
    0.7733    2.2782    0.0000 H   0  0  0  0  0  0  0  0  0  0  0  0
    2.7713   -0.0000    0.0000 O   0  0  0  0  0  0  0  0  0  0  0  0
    4.1569    0.8000    0.0000 H   0  0  0  0  0  0  0  0  0  0  0  0
   -0.0001   -1.6000    0.0000 C   0  0  0  0  0  0  0  0  0  0  0  0
    1.3856   -2.4000    0.0000 H   0  0  0  0  0  0  0  0  0  0  0  0
   -1.3857   -2.4000    0.0000 C   0  0  0  0  0  0  0  0  0  0  0  0
   -1.3857   -4.0000    0.0000 H   0  0  0  0  0  0  0  0  0  0  0  0
   -2.7712   -1.6000    0.0000 C   0  0  0  0  0  0  0  0  0  0  0  0
   -4.1569   -2.4000    0.0000 H   0  0  0  0  0  0  0  0  0  0  0  0
   -5.5425   -0.0000    0.0000 C   0  0  0  0  0  0  0  0  0  0  0  0
   -6.9282    0.8000    0.0000 H   0  0  0  0  0  0  0  0  0  0  0  0
   -6.9282   -0.8000    0.0000 H   0  0  0  0  0  0  0  0  0  0  0  0
   -5.5425    1.6000    0.0000 H   0  0  0  0  0  0  0  0  0  0  0  0
  1  2  1  0  0  0  0
  2  3  1  0  0  0  0
  3  4  1  0  0  0  0
  3  5  2  0  0  0  0
  5  6  1  0  0  0  0
  6  7  1  0  0  0  0
  6  8  1  0  0  0  0
  6  9  1  0  0  0  0
  9 10  1  0  0  0  0
  5 11  1  0  0  0  0
 11 12  1  0  0  0  0
 11 13  2  0  0  0  0
 13 14  1  0  0  0  0
 13 15  1  0  0  0  0
 15  2  2  0  0  0  0
 15 16  1  0  0  0  0
  1 17  1  0  0  0  0
 17 18  1  0  0  0  0
 17 19  1  0  0  0  0
 17 20  1  0  0  0  0
M  END
> <ChemID>
105089

> <source_casrn>
6971-51-3

> <CAS>
6971-51-3

> <SMILES>
COc1cccc(CO)c1

> <NAME>
(3-Methoxy-phenyl)-methanol

> <preferred_name>
3-Methoxybenzyl alcohol

> <iupac>


> <MPID>
23969

> <dsstox_substance_id>
DTXSID20220001

> <Canonical_QSARr>
COc1cccc(CO)c1

> <InChI_Code_QSARr>
InChI=1S/C8H10O2/c1-10-8-4-2-3-7(5-8)6-9/h2-5,9H,6H2,1H3

> <InChI Key_QSARr>
IIGNZLVHOZEOPV-UHFFFAOYSA-N

> <Salt_Solvent>
?

> <BP>
252.0

$$$$
105093
  -INDIGO-08031720192D

 35 34  0  0  0  0  0  0  0  0999 V2000
   -9.6912   -0.8964    0.0000 C   0  0  0  0  0  0  0  0  0  0  0  0
   -9.3448    0.6656    0.0000 H   0  0  0  0  0  0  0  0  0  0  0  0
  -10.5507    0.4530    0.0000 H   0  0  0  0  0  0  0  0  0  0  0  0
   -8.1877   -1.4437    0.0000 C   0  0  0  0  0  0  0  0  0  0  0  0
   -8.5337   -3.0057    0.0000 H   0  0  0  0  0  0  0  0  0  0  0  0
   -7.3279   -2.7931    0.0000 H   0  0  0  0  0  0  0  0  0  0  0  0
   -6.9619   -0.4152    0.0000 C   0  0  0  0  0  0  0  0  0  0  0  0
   -6.6155    1.1468    0.0000 H   0  0  0  0  0  0  0  0  0  0  0  0
   -7.8216    0.9342    0.0000 H   0  0  0  0  0  0  0  0  0  0  0  0
   -5.4583   -0.9625    0.0000 C   0  0  0  0  0  0  0  0  0  0  0  0
   -5.8047   -2.5245    0.0000 H   0  0  0  0  0  0  0  0  0  0  0  0
   -4.5986   -2.3119    0.0000 H   0  0  0  0  0  0  0  0  0  0  0  0
   -4.2328    0.0660    0.0000 C   0  0  0  0  0  0  0  0  0  0  0  0
   -3.8865    1.6281    0.0000 H   0  0  0  0  0  0  0  0  0  0  0  0
   -5.0923    1.4155    0.0000 H   0  0  0  0  0  0  0  0  0  0  0  0
   -2.7293   -0.4813    0.0000 C   0  0  0  0  0  0  0  0  0  0  0  0
   -3.0754   -2.0433    0.0000 H   0  0  0  0  0  0  0  0  0  0  0  0
   -1.8695   -1.8307    0.0000 H   0  0  0  0  0  0  0  0  0  0  0  0
   -1.5035    0.5472    0.0000 C   0  0  0  0  0  0  0  0  0  0  0  0
   -1.1572    2.1093    0.0000 H   0  0  0  0  0  0  0  0  0  0  0  0
   -2.3633    1.8967    0.0000 H   0  0  0  0  0  0  0  0  0  0  0  0
    0.0000    0.0000    0.0000 C   0  0  0  0  0  0  0  0  0  0  0  0
   -0.7999   -1.3857    0.0000 H   0  0  0  0  0  0  0  0  0  0  0  0
    1.3855   -0.8000    0.0000 C   0  0  0  0  0  0  0  0  0  0  0  0
    2.7713   -1.6000    0.0000 H   0  0  0  0  0  0  0  0  0  0  0  0
    1.3855   -2.4000    0.0000 H   0  0  0  0  0  0  0  0  0  0  0  0
    2.7713    0.0000    0.0000 H   0  0  0  0  0  0  0  0  0  0  0  0
    0.8000    1.3856    0.0000 C   0  0  0  0  0  0  0  0  0  0  0  0
    1.6000    2.7713    0.0000 H   0  0  0  0  0  0  0  0  0  0  0  0
    0.0000    2.7713    0.0000 H   0  0  0  0  0  0  0  0  0  0  0  0
    2.3999    1.3856    0.0000 H   0  0  0  0  0  0  0  0  0  0  0  0
  -10.9167   -1.9250    0.0000 C   0  0  0  0  0  0  0  0  0  0  0  0
  -12.1423   -2.9534    0.0000 H   0  0  0  0  0  0  0  0  0  0  0  0
  -12.4202   -1.3777    0.0000 H   0  0  0  0  0  0  0  0  0  0  0  0
  -10.6388   -3.5006    0.0000 H   0  0  0  0  0  0  0  0  0  0  0  0
  1  2  1  0  0  0  0
  1  3  1  0  0  0  0
  1  4  1  0  0  0  0
  4  5  1  0  0  0  0
  4  6  1  0  0  0  0
  4  7  1  0  0  0  0
  7  8  1  0  0  0  0
  7  9  1  0  0  0  0
  7 10  1  0  0  0  0
 10 11  1  0  0  0  0
 10 12  1  0  0  0  0
 10 13  1  0  0  0  0
 13 14  1  0  0  0  0
 13 15  1  0  0  0  0
 13 16  1  0  0  0  0
 16 17  1  0  0  0  0
 16 18  1  0  0  0  0
 16 19  1  0  0  0  0
 19 20  1  0  0  0  0
 19 21  1  0  0  0  0
 19 22  1  0  0  0  0
 22 23  1  0  0  0  0
 22 24  1  0  0  0  0
 24 25  1  0  0  0  0
 24 26  1  0  0  0  0
 24 27  1  0  0  0  0
 22 28  1  0  0  0  0
 28 29  1  0  0  0  0
 28 30  1  0  0  0  0
 28 31  1  0  0  0  0
  1 32  1  0  0  0  0
 32 33  1  0  0  0  0
 32 34  1  0  0  0  0
 32 35  1  0  0  0  0
M  END
> <ChemID>
105093

> <source_casrn>
6975-98-0

> <CAS>
6975-98-0

> <SMILES>
CCCCCCCCC(C)C

> <NAME>
2-METHYLDECANE

> <preferred_name>
2-Methyldecane

> <iupac>
C11H24

> <MPID>
23973

> <dsstox_substance_id>
DTXSID2058677

> <Canonical_QSARr>
CCCCCCCCC(C)C

> <InChI_Code_QSARr>
InChI=1S/C11H24/c1-4-5-6-7-8-9-10-11(2)3/h11H,4-10H2,1-3H3

> <InChI Key_QSARr>
CNPVJWYWYZMPDS-UHFFFAOYSA-N

> <Salt_Solvent>
?

> <BP>
189.3

$$$$
105099
  -INDIGO-08031720192D

 23 22  0  0  0  0  0  0  0  0999 V2000
    1.6001    0.0000    0.0000 C   0  0  0  0  0  0  0  0  0  0  0  0
    1.8088    1.5863    0.0000 H   0  0  0  0  0  0  0  0  0  0  0  0
    2.8694    0.9740    0.0000 H   0  0  0  0  0  0  0  0  0  0  0  0
    0.0001    0.0000    0.0000 C   0  0  0  0  0  0  0  0  0  0  0  0
    0.0001    1.6000    0.0000 C   0  0  0  0  0  0  0  0  0  0  0  0
    0.0001    3.2000    0.0000 H   0  0  0  0  0  0  0  0  0  0  0  0
    1.2257    2.6285    0.0000 H   0  0  0  0  0  0  0  0  0  0  0  0
   -1.3856    2.4000    0.0000 H   0  0  0  0  0  0  0  0  0  0  0  0
   -1.5999    0.0000    0.0000 N   0  0  0  0  0  0  0  0  0  0  0  0
   -2.4000    1.3856    0.0000 C   0  0  0  0  0  0  0  0  0  0  0  0
   -4.0000    1.3856    0.0000 H   0  0  0  0  0  0  0  0  0  0  0  0
   -3.2001    2.7712    0.0000 H   0  0  0  0  0  0  0  0  0  0  0  0
   -3.2001    0.0000    0.0000 H   0  0  0  0  0  0  0  0  0  0  0  0
   -2.4000   -1.3857    0.0000 C   0  0  0  0  0  0  0  0  0  0  0  0
   -3.2001   -2.7713    0.0000 H   0  0  0  0  0  0  0  0  0  0  0  0
   -4.0000   -1.3857    0.0000 H   0  0  0  0  0  0  0  0  0  0  0  0
   -0.8000   -1.3857    0.0000 H   0  0  0  0  0  0  0  0  0  0  0  0
    0.2779   -1.5757    0.0000 C   0  0  0  0  0  0  0  0  0  0  0  0
    0.5557   -3.1514    0.0000 H   0  0  0  0  0  0  0  0  0  0  0  0
    1.7813   -2.1229    0.0000 H   0  0  0  0  0  0  0  0  0  0  0  0
   -0.9478   -2.6042    0.0000 H   0  0  0  0  0  0  0  0  0  0  0  0
    2.4000   -1.3857    0.0000 O   0  0  0  0  0  0  0  0  0  0  0  0
    4.0000   -1.3857    0.0000 H   0  0  0  0  0  0  0  0  0  0  0  0
  1  2  1  0  0  0  0
  1  3  1  0  0  0  0
  1  4  1  0  0  0  0
  4  5  1  0  0  0  0
  5  6  1  0  0  0  0
  5  7  1  0  0  0  0
  5  8  1  0  0  0  0
  4  9  1  0  0  0  0
  9 10  1  0  0  0  0
 10 11  1  0  0  0  0
 10 12  1  0  0  0  0
 10 13  1  0  0  0  0
  9 14  1  0  0  0  0
 14 15  1  0  0  0  0
 14 16  1  0  0  0  0
 14 17  1  0  0  0  0
  4 18  1  0  0  0  0
 18 19  1  0  0  0  0
 18 20  1  0  0  0  0
 18 21  1  0  0  0  0
  1 22  1  0  0  0  0
 22 23  1  0  0  0  0
M  END
> <ChemID>
105099

> <source_casrn>
7005-47-2

> <CAS>
7005-47-2

> <SMILES>
CN(C)C(C)(C)CO

> <NAME>
DMAMP

> <preferred_name>
2-(Dimethylamino)-2-methylpropan-1-ol

> <iupac>
2-(dimethylamino)-2-methylpropan-1-ol

> <MPID>
23978

> <dsstox_substance_id>
DTXSID6044721

> <Canonical_QSARr>
CN(C)C(C)(C)CO

> <InChI_Code_QSARr>
InChI=1S/C6H15NO/c1-6(2,5-8)7(3)4/h8H,5H2,1-4H3

> <InChI Key_QSARr>
XRIBIDPMFSLGFS-UHFFFAOYSA-N

> <Salt_Solvent>
?

> <BP>
160.0

$$$$
105103
  -INDIGO-08031720192D

 30 30  0  0  0  0  0  0  0  0999 V2000
    0.0000    0.0000    0.0000 C   0  0  0  0  0  0  0  0  0  0  0  0
    0.5472    1.5035    0.0000 H   0  0  0  0  0  0  0  0  0  0  0  0
    0.0000   -1.6000    0.0000 C   0  0  0  0  0  0  0  0  0  0  0  0
    1.0285   -1.7813    0.0000 H   0  0  0  0  0  0  0  0  0  0  0  0
    0.5472   -3.1035    0.0000 H   0  0  0  0  0  0  0  0  0  0  0  0
   -1.3856   -2.4000    0.0000 C   0  0  0  0  0  0  0  0  0  0  0  0
   -0.3571   -3.6257    0.0000 H   0  0  0  0  0  0  0  0  0  0  0  0
   -2.4141   -3.6257    0.0000 H   0  0  0  0  0  0  0  0  0  0  0  0
   -2.7712   -1.6000    0.0000 C   0  0  0  0  0  0  0  0  0  0  0  0
   -3.3185   -3.1035    0.0000 H   0  0  0  0  0  0  0  0  0  0  0  0
   -4.3470   -1.3222    0.0000 H   0  0  0  0  0  0  0  0  0  0  0  0
   -2.7712    0.0000    0.0000 C   0  0  0  0  0  0  0  0  0  0  0  0
   -4.3470   -0.2778    0.0000 H   0  0  0  0  0  0  0  0  0  0  0  0
   -3.3185    1.5035    0.0000 H   0  0  0  0  0  0  0  0  0  0  0  0
   -1.3856    0.8000    0.0000 C   0  0  0  0  0  0  0  0  0  0  0  0
   -2.4141    2.0257    0.0000 H   0  0  0  0  0  0  0  0  0  0  0  0
   -0.3571    2.0257    0.0000 H   0  0  0  0  0  0  0  0  0  0  0  0
    1.5757   -0.2778    0.0000 C   0  0  0  0  0  0  0  0  0  0  0  0
    1.5757   -1.3222    0.0000 H   0  0  0  0  0  0  0  0  0  0  0  0
    2.9614   -1.0778    0.0000 C   0  0  0  0  0  0  0  0  0  0  0  0
    2.3491   -2.5560    0.0000 H   0  0  0  0  0  0  0  0  0  0  0  0
    3.5737   -2.5560    0.0000 H   0  0  0  0  0  0  0  0  0  0  0  0
    4.3470   -0.2778    0.0000 C   0  0  0  0  0  0  0  0  0  0  0  0
    5.7326   -1.0778    0.0000 H   0  0  0  0  0  0  0  0  0  0  0  0
    5.7326    0.5222    0.0000 H   0  0  0  0  0  0  0  0  0  0  0  0
    4.3470   -1.8778    0.0000 H   0  0  0  0  0  0  0  0  0  0  0  0
    2.3757    1.1078    0.0000 C   0  0  0  0  0  0  0  0  0  0  0  0
    3.1758    2.4934    0.0000 H   0  0  0  0  0  0  0  0  0  0  0  0
    1.5757    2.4934    0.0000 H   0  0  0  0  0  0  0  0  0  0  0  0
    3.9757    1.1078    0.0000 H   0  0  0  0  0  0  0  0  0  0  0  0
  1  2  1  0  0  0  0
  1  3  1  0  0  0  0
  3  4  1  0  0  0  0
  3  5  1  0  0  0  0
  3  6  1  0  0  0  0
  6  7  1  0  0  0  0
  6  8  1  0  0  0  0
  6  9  1  0  0  0  0
  9 10  1  0  0  0  0
  9 11  1  0  0  0  0
  9 12  1  0  0  0  0
 12 13  1  0  0  0  0
 12 14  1  0  0  0  0
 12 15  1  0  0  0  0
 15  1  1  0  0  0  0
 15 16  1  0  0  0  0
 15 17  1  0  0  0  0
  1 18  1  0  0  0  0
 18 19  1  0  0  0  0
 18 20  1  0  0  0  0
 20 21  1  0  0  0  0
 20 22  1  0  0  0  0
 20 23  1  0  0  0  0
 23 24  1  0  0  0  0
 23 25  1  0  0  0  0
 23 26  1  0  0  0  0
 18 27  1  0  0  0  0
 27 28  1  0  0  0  0
 27 29  1  0  0  0  0
 27 30  1  0  0  0  0
M  END
> <ChemID>
105103

> <source_casrn>
7058-01-7

> <CAS>
NOCAS_871939

> <SMILES>
CC(CC)C1CCCCC1

> <NAME>
S-BUTYLCYCLOHEXANE

> <preferred_name>


> <iupac>


> <MPID>
23982

> <dsstox_substance_id>
DTXSID00871939

> <Canonical_QSARr>
CC(CC)C1CCCCC1

> <InChI_Code_QSARr>
InChI=1S/C10H20/c1-3-9(2)10-7-5-4-6-8-10/h9-10H,3-8H2,1-2H3

> <InChI Key_QSARr>
QTYARKOMFKRPSY-UHFFFAOYSA-N

> <Salt_Solvent>
?

> <BP>
179.3

$$$$
105107
  -INDIGO-08031720192D

 27 27  0  0  0  0  0  0  0  0999 V2000
    0.0000    0.0000    0.0000 C   0  0  0  0  0  0  0  0  0  0  0  0
    1.3856   -0.8000    0.0000 C   0  0  0  0  0  0  0  0  0  0  0  0
    1.9328    0.7035    0.0000 H   0  0  0  0  0  0  0  0  0  0  0  0
    2.9856   -0.8000    0.0000 C   0  0  0  0  0  0  0  0  0  0  0  0
    4.5856   -0.8000    0.0000 H   0  0  0  0  0  0  0  0  0  0  0  0
    3.7856    0.5856    0.0000 H   0  0  0  0  0  0  0  0  0  0  0  0
    4.0141   -2.0257    0.0000 H   0  0  0  0  0  0  0  0  0  0  0  0
    1.3856   -2.4000    0.0000 C   0  0  0  0  0  0  0  0  0  0  0  0
    2.9613   -2.1222    0.0000 H   0  0  0  0  0  0  0  0  0  0  0  0
    1.9328   -3.9035    0.0000 H   0  0  0  0  0  0  0  0  0  0  0  0
    0.0000   -3.2000    0.0000 C   0  0  0  0  0  0  0  0  0  0  0  0
    1.0285   -4.4257    0.0000 H   0  0  0  0  0  0  0  0  0  0  0  0
   -1.0285   -4.4257    0.0000 H   0  0  0  0  0  0  0  0  0  0  0  0
   -1.3856   -2.4000    0.0000 C   0  0  0  0  0  0  0  0  0  0  0  0
   -1.9328   -3.9035    0.0000 H   0  0  0  0  0  0  0  0  0  0  0  0
   -2.9613   -2.1222    0.0000 H   0  0  0  0  0  0  0  0  0  0  0  0
   -1.3856   -0.8000    0.0000 C   0  0  0  0  0  0  0  0  0  0  0  0
   -2.9613   -1.0778    0.0000 H   0  0  0  0  0  0  0  0  0  0  0  0
   -1.9328    0.7035    0.0000 H   0  0  0  0  0  0  0  0  0  0  0  0
   -1.0285    1.2257    0.0000 C   0  0  0  0  0  0  0  0  0  0  0  0
   -2.0569    2.4513    0.0000 H   0  0  0  0  0  0  0  0  0  0  0  0
   -0.4813    2.7292    0.0000 H   0  0  0  0  0  0  0  0  0  0  0  0
   -2.6041    1.5035    0.0000 H   0  0  0  0  0  0  0  0  0  0  0  0
    1.0285    1.2257    0.0000 C   0  0  0  0  0  0  0  0  0  0  0  0
    2.0570    2.4513    0.0000 H   0  0  0  0  0  0  0  0  0  0  0  0
    0.4812    2.7292    0.0000 H   0  0  0  0  0  0  0  0  0  0  0  0
    2.6042    1.5035    0.0000 H   0  0  0  0  0  0  0  0  0  0  0  0
  1  2  1  0  0  0  0
  2  3  1  0  0  0  0
  2  4  1  0  0  0  0
  4  5  1  0  0  0  0
  4  6  1  0  0  0  0
  4  7  1  0  0  0  0
  2  8  1  0  0  0  0
  8  9  1  0  0  0  0
  8 10  1  0  0  0  0
  8 11  1  0  0  0  0
 11 12  1  0  0  0  0
 11 13  1  0  0  0  0
 11 14  1  0  0  0  0
 14 15  1  0  0  0  0
 14 16  1  0  0  0  0
 14 17  1  0  0  0  0
 17  1  1  0  0  0  0
 17 18  1  0  0  0  0
 17 19  1  0  0  0  0
  1 20  1  0  0  0  0
 20 21  1  0  0  0  0
 20 22  1  0  0  0  0
 20 23  1  0  0  0  0
  1 24  1  0  0  0  0
 24 25  1  0  0  0  0
 24 26  1  0  0  0  0
 24 27  1  0  0  0  0
M  END
> <ChemID>
105107

> <source_casrn>
7094-26-0

> <CAS>
NOCAS_871181

> <SMILES>
CC1CCCCC1(C)C

> <NAME>
CYCLOHEXANE, 1,1,2-TRIMETHYL-

> <preferred_name>


> <iupac>


> <MPID>
23986

> <dsstox_substance_id>
DTXSID50871181

> <Canonical_QSARr>
CC1CCCCC1(C)C

> <InChI_Code_QSARr>
InChI=1S/C9H18/c1-8-6-4-5-7-9(8,2)3/h8H,4-7H2,1-3H3

> <InChI Key_QSARr>
MEBONNVPKOBPEA-UHFFFAOYSA-N

> <Salt_Solvent>
?

> <BP>
145.2

$$$$
105111
  -INDIGO-08031720192D

 24 23  0  0  0  0  0  0  0  0999 V2000
    1.3857   -0.8000    0.0000 C   0  0  0  0  0  0  0  0  0  0  0  0
    1.9980   -2.2782    0.0000 H   0  0  0  0  0  0  0  0  0  0  0  0
    0.7734   -2.2782    0.0000 H   0  0  0  0  0  0  0  0  0  0  0  0
    0.0001    0.0000    0.0000 C   0  0  0  0  0  0  0  0  0  0  0  0
   -1.3857    0.8000    0.0000 C   0  0  0  0  0  0  0  0  0  0  0  0
   -2.7713    1.6000    0.0000 H   0  0  0  0  0  0  0  0  0  0  0  0
   -2.7713    0.0000    0.0000 H   0  0  0  0  0  0  0  0  0  0  0  0
   -1.3857    2.4000    0.0000 H   0  0  0  0  0  0  0  0  0  0  0  0
    0.8000    1.3857    0.0000 C   0  0  0  0  0  0  0  0  0  0  0  0
    1.6000    2.7713    0.0000 H   0  0  0  0  0  0  0  0  0  0  0  0
    0.0001    2.7713    0.0000 H   0  0  0  0  0  0  0  0  0  0  0  0
    2.4000    1.3857    0.0000 H   0  0  0  0  0  0  0  0  0  0  0  0
   -0.8000   -1.3857    0.0000 C   0  0  0  0  0  0  0  0  0  0  0  0
   -1.6000   -2.7713    0.0000 H   0  0  0  0  0  0  0  0  0  0  0  0
   -0.2528   -2.8892    0.0000 H   0  0  0  0  0  0  0  0  0  0  0  0
   -2.3999   -1.3857    0.0000 H   0  0  0  0  0  0  0  0  0  0  0  0
    2.9857   -0.8000    0.0000 C   0  0  0  0  0  0  0  0  0  0  0  0
    3.1945    0.7863    0.0000 H   0  0  0  0  0  0  0  0  0  0  0  0
    4.2550    0.1741    0.0000 H   0  0  0  0  0  0  0  0  0  0  0  0
    3.7856   -2.1857    0.0000 C   0  0  0  0  0  0  0  0  0  0  0  0
    2.9857   -3.5713    0.0000 H   0  0  0  0  0  0  0  0  0  0  0  0
    5.3857   -2.1857    0.0000 C   0  0  0  0  0  0  0  0  0  0  0  0
    6.1856   -3.5713    0.0000 H   0  0  0  0  0  0  0  0  0  0  0  0
    6.1856   -0.8000    0.0000 H   0  0  0  0  0  0  0  0  0  0  0  0
  1  2  1  0  0  0  0
  1  3  1  0  0  0  0
  1  4  1  0  0  0  0
  4  5  1  0  0  0  0
  5  6  1  0  0  0  0
  5  7  1  0  0  0  0
  5  8  1  0  0  0  0
  4  9  1  0  0  0  0
  9 10  1  0  0  0  0
  9 11  1  0  0  0  0
  9 12  1  0  0  0  0
  4 13  1  0  0  0  0
 13 14  1  0  0  0  0
 13 15  1  0  0  0  0
 13 16  1  0  0  0  0
  1 17  1  0  0  0  0
 17 18  1  0  0  0  0
 17 19  1  0  0  0  0
 17 20  1  0  0  0  0
 20 21  1  0  0  0  0
 20 22  2  0  0  0  0
 22 23  1  0  0  0  0
 22 24  1  0  0  0  0
M  END
> <ChemID>
105111

> <source_casrn>
7116-86-1

> <CAS>
7116-86-1

> <SMILES>
CC(C)(C)CCC=C

> <NAME>
1-Hexene, 5,5-dimethyl-

> <preferred_name>
1-Hexene, 5,5-dimethyl-

> <iupac>
5,5-Dimethylhex-1-ene

> <MPID>
23990

> <dsstox_substance_id>
DTXSID8064565

> <Canonical_QSARr>
CC(C)(C)CCC=C

> <InChI_Code_QSARr>
InChI=1S/C8H16/c1-5-6-7-8(2,3)4/h5H,1,6-7H2,2-4H3

> <InChI Key_QSARr>
KZJIOVQKSAOPOP-UHFFFAOYSA-N

> <Salt_Solvent>
?

> <BP>
104.0

$$$$
105115
  -INDIGO-08031720192D

 24 23  0  0  0  0  0  0  0  0999 V2000
    0.0000    0.0000    0.0000 C   0  0  0  0  0  0  0  0  0  0  0  0
    1.2694   -0.9740    0.0000 H   0  0  0  0  0  0  0  0  0  0  0  0
    0.2089   -1.5863    0.0000 H   0  0  0  0  0  0  0  0  0  0  0  0
    0.8000    1.3856    0.0000 C   0  0  0  0  0  0  0  0  0  0  0  0
    2.4000    1.3856    0.0000 C   0  0  0  0  0  0  0  0  0  0  0  0
    3.2001    2.7713    0.0000 C   0  0  0  0  0  0  0  0  0  0  0  0
    4.0000    4.1569    0.0000 H   0  0  0  0  0  0  0  0  0  0  0  0
    4.8000    2.7713    0.0000 H   0  0  0  0  0  0  0  0  0  0  0  0
    2.4000    4.1569    0.0000 H   0  0  0  0  0  0  0  0  0  0  0  0
    3.2001    0.0000    0.0000 C   0  0  0  0  0  0  0  0  0  0  0  0
    4.0000   -1.3856    0.0000 H   0  0  0  0  0  0  0  0  0  0  0  0
    4.8000    0.0000    0.0000 H   0  0  0  0  0  0  0  0  0  0  0  0
    2.4000   -1.3856    0.0000 H   0  0  0  0  0  0  0  0  0  0  0  0
    0.0000    2.7713    0.0000 C   0  0  0  0  0  0  0  0  0  0  0  0
   -0.8000    4.1569    0.0000 H   0  0  0  0  0  0  0  0  0  0  0  0
    0.8000    4.1569    0.0000 H   0  0  0  0  0  0  0  0  0  0  0  0
   -1.6000    2.7713    0.0000 H   0  0  0  0  0  0  0  0  0  0  0  0
   -1.6000    0.0000    0.0000 C   0  0  0  0  0  0  0  0  0  0  0  0
   -2.8694    0.9740    0.0000 H   0  0  0  0  0  0  0  0  0  0  0  0
   -1.8088    1.5863    0.0000 H   0  0  0  0  0  0  0  0  0  0  0  0
   -2.4001   -1.3856    0.0000 C   0  0  0  0  0  0  0  0  0  0  0  0
   -3.2000   -2.7713    0.0000 H   0  0  0  0  0  0  0  0  0  0  0  0
   -4.0000   -1.3856    0.0000 H   0  0  0  0  0  0  0  0  0  0  0  0
   -1.6000   -2.7713    0.0000 H   0  0  0  0  0  0  0  0  0  0  0  0
  1  2  1  0  0  0  0
  1  3  1  0  0  0  0
  1  4  1  0  0  0  0
  4  5  2  0  0  0  0
  5  6  1  0  0  0  0
  6  7  1  0  0  0  0
  6  8  1  0  0  0  0
  6  9  1  0  0  0  0
  5 10  1  0  0  0  0
 10 11  1  0  0  0  0
 10 12  1  0  0  0  0
 10 13  1  0  0  0  0
  4 14  1  0  0  0  0
 14 15  1  0  0  0  0
 14 16  1  0  0  0  0
 14 17  1  0  0  0  0
  1 18  1  0  0  0  0
 18 19  1  0  0  0  0
 18 20  1  0  0  0  0
 18 21  1  0  0  0  0
 21 22  1  0  0  0  0
 21 23  1  0  0  0  0
 21 24  1  0  0  0  0
M  END
> <ChemID>
105115

> <source_casrn>
7145-20-2

> <CAS>
7145-20-2

> <SMILES>
CC(C)=C(C)CCC

> <NAME>
2,3-DIMETHYL-2-HEXENE

> <preferred_name>
2,3-Dimethylhex-2-ene

> <iupac>
2,3-Dimethylhex-2-ene

> <MPID>
23994

> <dsstox_substance_id>
DTXSID60221638

> <Canonical_QSARr>
CC(C)=C(C)CCC

> <InChI_Code_QSARr>
InChI=1S/C8H16/c1-5-6-8(4)7(2)3/h5-6H2,1-4H3

> <InChI Key_QSARr>
RGYAVZGBAJFMIZ-UHFFFAOYSA-N

> <Salt_Solvent>
?

> <BP>
121.8

$$$$
105119
  -INDIGO-08031720192D

 25 24  0  0  0  0  0  0  0  0999 V2000
   -5.5426    0.0000    0.0000 O   0  0  0  0  0  0  0  0  0  0  0  0
   -4.1569    0.8000    0.0000 C   0  0  0  0  0  0  0  0  0  0  0  0
   -4.1569    2.4000    0.0000 O   0  0  0  0  0  0  0  0  0  0  0  0
   -2.7713    0.0000    0.0000 C   0  0  0  0  0  0  0  0  0  0  0  0
   -3.3835   -1.4782    0.0000 H   0  0  0  0  0  0  0  0  0  0  0  0
   -2.1590   -1.4782    0.0000 H   0  0  0  0  0  0  0  0  0  0  0  0
   -1.3856    0.8000    0.0000 C   0  0  0  0  0  0  0  0  0  0  0  0
   -1.3856    2.4000    0.0000 O   0  0  0  0  0  0  0  0  0  0  0  0
    0.0001    0.0000    0.0000 C   0  0  0  0  0  0  0  0  0  0  0  0
   -0.7999   -1.3856    0.0000 H   0  0  0  0  0  0  0  0  0  0  0  0
    1.3856   -0.8000    0.0000 C   0  0  0  0  0  0  0  0  0  0  0  0
    2.7713   -1.6000    0.0000 H   0  0  0  0  0  0  0  0  0  0  0  0
    1.3856   -2.4000    0.0000 H   0  0  0  0  0  0  0  0  0  0  0  0
    2.7713    0.0000    0.0000 H   0  0  0  0  0  0  0  0  0  0  0  0
    0.8000    1.3856    0.0000 C   0  0  0  0  0  0  0  0  0  0  0  0
    1.6000    2.7713    0.0000 H   0  0  0  0  0  0  0  0  0  0  0  0
    0.0001    2.7713    0.0000 H   0  0  0  0  0  0  0  0  0  0  0  0
    2.4000    1.3856    0.0000 H   0  0  0  0  0  0  0  0  0  0  0  0
   -6.9283    0.8000    0.0000 C   0  0  0  0  0  0  0  0  0  0  0  0
   -6.3159    2.2782    0.0000 H   0  0  0  0  0  0  0  0  0  0  0  0
   -7.5404    2.2782    0.0000 H   0  0  0  0  0  0  0  0  0  0  0  0
   -8.3138    0.0000    0.0000 C   0  0  0  0  0  0  0  0  0  0  0  0
   -9.6995   -0.8000    0.0000 H   0  0  0  0  0  0  0  0  0  0  0  0
   -9.6995    0.8000    0.0000 H   0  0  0  0  0  0  0  0  0  0  0  0
   -8.3138   -1.6000    0.0000 H   0  0  0  0  0  0  0  0  0  0  0  0
  1  2  1  0  0  0  0
  2  3  2  0  0  0  0
  2  4  1  0  0  0  0
  4  5  1  0  0  0  0
  4  6  1  0  0  0  0
  4  7  1  0  0  0  0
  7  8  2  0  0  0  0
  7  9  1  0  0  0  0
  9 10  1  0  0  0  0
  9 11  1  0  0  0  0
 11 12  1  0  0  0  0
 11 13  1  0  0  0  0
 11 14  1  0  0  0  0
  9 15  1  0  0  0  0
 15 16  1  0  0  0  0
 15 17  1  0  0  0  0
 15 18  1  0  0  0  0
  1 19  1  0  0  0  0
 19 20  1  0  0  0  0
 19 21  1  0  0  0  0
 19 22  1  0  0  0  0
 22 23  1  0  0  0  0
 22 24  1  0  0  0  0
 22 25  1  0  0  0  0
M  END
> <ChemID>
105119

> <source_casrn>
7152-15-0

> <CAS>
7152-15-0

> <SMILES>
CCOC(=O)CC(=O)C(C)C

> <NAME>
PENTANOIC ACID, 4-METHYL-3-OXO-, ETHYL ESTER

> <preferred_name>
Ethyl isobutyrylacetate

> <iupac>
Ethyl 4-methyl-3-oxopentanoate

> <MPID>
23998

> <dsstox_substance_id>
DTXSID00221758

> <Canonical_QSARr>
CCOC(=O)CC(=O)C(C)C

> <InChI_Code_QSARr>
InChI=1S/C8H14O3/c1-4-11-8(10)5-7(9)6(2)3/h6H,4-5H2,1-3H3

> <InChI Key_QSARr>
XCLDSQRVMMXWMS-UHFFFAOYSA-N

> <Salt_Solvent>
?

> <BP>
173.0

$$$$
105123
  -INDIGO-08031720192D

 32 31  0  0  0  0  0  0  0  0999 V2000
    1.6635    2.3757    0.0000 C   0  0  0  0  0  0  0  0  0  0  0  0
    3.1670    2.9229    0.0000 H   0  0  0  0  0  0  0  0  0  0  0  0
    1.9413    3.9514    0.0000 H   0  0  0  0  0  0  0  0  0  0  0  0
    2.8891    1.3472    0.0000 H   0  0  0  0  0  0  0  0  0  0  0  0
    1.3856    0.8001    0.0000 C   0  0  0  0  0  0  0  0  0  0  0  0
    2.9116    0.3189    0.0000 H   0  0  0  0  0  0  0  0  0  0  0  0
    2.1244   -0.6192    0.0000 H   0  0  0  0  0  0  0  0  0  0  0  0
    0.0000   -0.0000    0.0000 C   0  0  0  0  0  0  0  0  0  0  0  0
   -1.3856   -0.8000    0.0000 C   0  0  0  0  0  0  0  0  0  0  0  0
   -1.9979   -2.2782    0.0000 H   0  0  0  0  0  0  0  0  0  0  0  0
   -0.7733   -2.2782    0.0000 H   0  0  0  0  0  0  0  0  0  0  0  0
   -2.7712   -0.0000    0.0000 C   0  0  0  0  0  0  0  0  0  0  0  0
   -1.9713    1.3856    0.0000 H   0  0  0  0  0  0  0  0  0  0  0  0
   -4.1570    0.8001    0.0000 C   0  0  0  0  0  0  0  0  0  0  0  0
   -3.5447    2.2782    0.0000 H   0  0  0  0  0  0  0  0  0  0  0  0
   -4.7691    2.2782    0.0000 H   0  0  0  0  0  0  0  0  0  0  0  0
   -5.5426   -0.0000    0.0000 C   0  0  0  0  0  0  0  0  0  0  0  0
   -6.9282    0.8001    0.0000 H   0  0  0  0  0  0  0  0  0  0  0  0
   -6.9282   -0.8000    0.0000 H   0  0  0  0  0  0  0  0  0  0  0  0
   -5.5426    1.6000    0.0000 H   0  0  0  0  0  0  0  0  0  0  0  0
   -3.5713   -1.3857    0.0000 C   0  0  0  0  0  0  0  0  0  0  0  0
   -4.3712   -2.7713    0.0000 H   0  0  0  0  0  0  0  0  0  0  0  0
   -3.0240   -2.8891    0.0000 H   0  0  0  0  0  0  0  0  0  0  0  0
   -5.1713   -1.3857    0.0000 H   0  0  0  0  0  0  0  0  0  0  0  0
   -0.8001    1.3856    0.0000 C   0  0  0  0  0  0  0  0  0  0  0  0
   -0.2528    2.8891    0.0000 H   0  0  0  0  0  0  0  0  0  0  0  0
   -1.8285    2.6114    0.0000 H   0  0  0  0  0  0  0  0  0  0  0  0
    0.7756    1.6635    0.0000 H   0  0  0  0  0  0  0  0  0  0  0  0
    0.8000   -1.3857    0.0000 C   0  0  0  0  0  0  0  0  0  0  0  0
    1.6001   -2.7713    0.0000 H   0  0  0  0  0  0  0  0  0  0  0  0
    2.3757   -1.6635    0.0000 H   0  0  0  0  0  0  0  0  0  0  0  0
    0.2528   -2.8891    0.0000 H   0  0  0  0  0  0  0  0  0  0  0  0
  1  2  1  0  0  0  0
  1  3  1  0  0  0  0
  1  4  1  0  0  0  0
  1  5  1  0  0  0  0
  5  6  1  0  0  0  0
  5  7  1  0  0  0  0
  5  8  1  0  0  0  0
  8  9  1  0  0  0  0
  9 10  1  0  0  0  0
  9 11  1  0  0  0  0
  9 12  1  0  0  0  0
 12 13  1  0  0  0  0
 12 14  1  0  0  0  0
 14 15  1  0  0  0  0
 14 16  1  0  0  0  0
 14 17  1  0  0  0  0
 17 18  1  0  0  0  0
 17 19  1  0  0  0  0
 17 20  1  0  0  0  0
 12 21  1  0  0  0  0
 21 22  1  0  0  0  0
 21 23  1  0  0  0  0
 21 24  1  0  0  0  0
  8 25  1  0  0  0  0
 25 26  1  0  0  0  0
 25 27  1  0  0  0  0
 25 28  1  0  0  0  0
  8 29  1  0  0  0  0
 29 30  1  0  0  0  0
 29 31  1  0  0  0  0
 29 32  1  0  0  0  0
M  END
> <ChemID>
105123

> <source_casrn>
7154-80-5

> <CAS>
NOCAS_871185

> <SMILES>
CC(CC(C)(C)CC)CC

> <NAME>
HEPTANE, 3,3,5-TRIMETHYL-

> <preferred_name>


> <iupac>


> <MPID>
24002

> <dsstox_substance_id>
DTXSID90871185

> <Canonical_QSARr>
CC(CC(C)(C)CC)CC

> <InChI_Code_QSARr>
InChI=1S/C10H22/c1-6-9(3)8-10(4,5)7-2/h9H,6-8H2,1-5H3

> <InChI Key_QSARr>
VRVRZZWPKABUOE-UHFFFAOYSA-N

> <Salt_Solvent>
?

> <BP>
155.7

$$$$
105127
  -INDIGO-08031720192D

116115  0  0  0  0  0  0  0  0999 V2000
   -0.0003    0.0000    0.0000 C   0  0  0  0  0  0  0  0  0  0  0  0
    0.6124    1.4782    0.0000 H   0  0  0  0  0  0  0  0  0  0  0  0
   -0.6121    1.4782    0.0000 H   0  0  0  0  0  0  0  0  0  0  0  0
    1.3859   -0.8000    0.0000 C   0  0  0  0  0  0  0  0  0  0  0  0
    0.7732   -2.2782    0.0000 H   0  0  0  0  0  0  0  0  0  0  0  0
    1.9977   -2.2782    0.0000 H   0  0  0  0  0  0  0  0  0  0  0  0
    2.7712    0.0000    0.0000 C   0  0  0  0  0  0  0  0  0  0  0  0
    3.3839    1.4782    0.0000 H   0  0  0  0  0  0  0  0  0  0  0  0
    2.1594    1.4782    0.0000 H   0  0  0  0  0  0  0  0  0  0  0  0
    4.1565   -0.8000    0.0000 C   0  0  0  0  0  0  0  0  0  0  0  0
    3.5447   -2.2782    0.0000 H   0  0  0  0  0  0  0  0  0  0  0  0
    4.7692   -2.2782    0.0000 H   0  0  0  0  0  0  0  0  0  0  0  0
    5.5427    0.0000    0.0000 C   0  0  0  0  0  0  0  0  0  0  0  0
    6.1545    1.4782    0.0000 H   0  0  0  0  0  0  0  0  0  0  0  0
    4.9300    1.4782    0.0000 H   0  0  0  0  0  0  0  0  0  0  0  0
    6.9280   -0.8000    0.0000 C   0  0  0  0  0  0  0  0  0  0  0  0
    6.3162   -2.2782    0.0000 H   0  0  0  0  0  0  0  0  0  0  0  0
    7.5407   -2.2782    0.0000 H   0  0  0  0  0  0  0  0  0  0  0  0
    8.3142    0.0000    0.0000 C   0  0  0  0  0  0  0  0  0  0  0  0
    8.9260    1.4782    0.0000 H   0  0  0  0  0  0  0  0  0  0  0  0
    7.7015    1.4782    0.0000 H   0  0  0  0  0  0  0  0  0  0  0  0
    9.6995   -0.8000    0.0000 C   0  0  0  0  0  0  0  0  0  0  0  0
    9.0868   -2.2782    0.0000 H   0  0  0  0  0  0  0  0  0  0  0  0
   10.3122   -2.2782    0.0000 H   0  0  0  0  0  0  0  0  0  0  0  0
   11.0848    0.0000    0.0000 C   0  0  0  0  0  0  0  0  0  0  0  0
   11.6975    1.4782    0.0000 H   0  0  0  0  0  0  0  0  0  0  0  0
   10.4730    1.4782    0.0000 H   0  0  0  0  0  0  0  0  0  0  0  0
   12.4710   -0.8000    0.0000 C   0  0  0  0  0  0  0  0  0  0  0  0
   11.8583   -2.2782    0.0000 H   0  0  0  0  0  0  0  0  0  0  0  0
   13.0828   -2.2782    0.0000 H   0  0  0  0  0  0  0  0  0  0  0  0
   13.8563    0.0000    0.0000 C   0  0  0  0  0  0  0  0  0  0  0  0
   14.4690    1.4782    0.0000 H   0  0  0  0  0  0  0  0  0  0  0  0
   13.2444    1.4782    0.0000 H   0  0  0  0  0  0  0  0  0  0  0  0
   15.2424   -0.8000    0.0000 C   0  0  0  0  0  0  0  0  0  0  0  0
   14.6298   -2.2782    0.0000 H   0  0  0  0  0  0  0  0  0  0  0  0
   15.8543   -2.2782    0.0000 H   0  0  0  0  0  0  0  0  0  0  0  0
   16.6277    0.0000    0.0000 C   0  0  0  0  0  0  0  0  0  0  0  0
   17.2396    1.4782    0.0000 H   0  0  0  0  0  0  0  0  0  0  0  0
   16.0151    1.4782    0.0000 H   0  0  0  0  0  0  0  0  0  0  0  0
   18.0131   -0.8000    0.0000 C   0  0  0  0  0  0  0  0  0  0  0  0
   17.4012   -2.2782    0.0000 H   0  0  0  0  0  0  0  0  0  0  0  0
   18.6257   -2.2782    0.0000 H   0  0  0  0  0  0  0  0  0  0  0  0
   19.3992    0.0000    0.0000 C   0  0  0  0  0  0  0  0  0  0  0  0
   20.0111    1.4782    0.0000 H   0  0  0  0  0  0  0  0  0  0  0  0
   18.7865    1.4782    0.0000 H   0  0  0  0  0  0  0  0  0  0  0  0
   20.7845   -0.8000    0.0000 C   0  0  0  0  0  0  0  0  0  0  0  0
   20.1727   -2.2782    0.0000 H   0  0  0  0  0  0  0  0  0  0  0  0
   21.3972   -2.2782    0.0000 H   0  0  0  0  0  0  0  0  0  0  0  0
   22.1699    0.0000    0.0000 C   0  0  0  0  0  0  0  0  0  0  0  0
   22.7825    1.4782    0.0000 H   0  0  0  0  0  0  0  0  0  0  0  0
   21.5580    1.4782    0.0000 H   0  0  0  0  0  0  0  0  0  0  0  0
   23.5560   -0.8000    0.0000 C   0  0  0  0  0  0  0  0  0  0  0  0
   22.9433   -2.2782    0.0000 H   0  0  0  0  0  0  0  0  0  0  0  0
   24.1679   -2.2782    0.0000 H   0  0  0  0  0  0  0  0  0  0  0  0
   24.9413    0.0000    0.0000 C   0  0  0  0  0  0  0  0  0  0  0  0
   25.5540    1.4782    0.0000 H   0  0  0  0  0  0  0  0  0  0  0  0
   24.3295    1.4782    0.0000 H   0  0  0  0  0  0  0  0  0  0  0  0
   26.3275   -0.8000    0.0000 C   0  0  0  0  0  0  0  0  0  0  0  0
   27.7128   -1.6000    0.0000 H   0  0  0  0  0  0  0  0  0  0  0  0
   27.7128    0.0000    0.0000 H   0  0  0  0  0  0  0  0  0  0  0  0
   26.3275   -2.4000    0.0000 H   0  0  0  0  0  0  0  0  0  0  0  0
   -1.3856   -0.8000    0.0000 C   0  0  0  0  0  0  0  0  0  0  0  0
   -1.9983   -2.2782    0.0000 H   0  0  0  0  0  0  0  0  0  0  0  0
   -0.7737   -2.2782    0.0000 H   0  0  0  0  0  0  0  0  0  0  0  0
   -2.7709    0.0000    0.0000 C   0  0  0  0  0  0  0  0  0  0  0  0
   -2.1590    1.4782    0.0000 H   0  0  0  0  0  0  0  0  0  0  0  0
   -3.3836    1.4782    0.0000 H   0  0  0  0  0  0  0  0  0  0  0  0
   -4.1570   -0.8000    0.0000 C   0  0  0  0  0  0  0  0  0  0  0  0
   -4.7689   -2.2782    0.0000 H   0  0  0  0  0  0  0  0  0  0  0  0
   -3.5444   -2.2782    0.0000 H   0  0  0  0  0  0  0  0  0  0  0  0
   -5.5424    0.0000    0.0000 C   0  0  0  0  0  0  0  0  0  0  0  0
   -4.9305    1.4782    0.0000 H   0  0  0  0  0  0  0  0  0  0  0  0
   -6.1550    1.4782    0.0000 H   0  0  0  0  0  0  0  0  0  0  0  0
   -6.9285   -0.8000    0.0000 C   0  0  0  0  0  0  0  0  0  0  0  0
   -7.5404   -2.2782    0.0000 H   0  0  0  0  0  0  0  0  0  0  0  0
   -6.3158   -2.2782    0.0000 H   0  0  0  0  0  0  0  0  0  0  0  0
   -8.3138    0.0000    0.0000 C   0  0  0  0  0  0  0  0  0  0  0  0
   -7.7012    1.4782    0.0000 H   0  0  0  0  0  0  0  0  0  0  0  0
   -8.9265    1.4782    0.0000 H   0  0  0  0  0  0  0  0  0  0  0  0
   -9.6992   -0.8000    0.0000 C   0  0  0  0  0  0  0  0  0  0  0  0
  -10.3118   -2.2782    0.0000 H   0  0  0  0  0  0  0  0  0  0  0  0
   -9.0873   -2.2782    0.0000 H   0  0  0  0  0  0  0  0  0  0  0  0
  -11.0853    0.0000    0.0000 C   0  0  0  0  0  0  0  0  0  0  0  0
  -10.4726    1.4782    0.0000 H   0  0  0  0  0  0  0  0  0  0  0  0
  -11.6972    1.4782    0.0000 H   0  0  0  0  0  0  0  0  0  0  0  0
  -12.4706   -0.8000    0.0000 C   0  0  0  0  0  0  0  0  0  0  0  0
  -13.0833   -2.2782    0.0000 H   0  0  0  0  0  0  0  0  0  0  0  0
  -11.8588   -2.2782    0.0000 H   0  0  0  0  0  0  0  0  0  0  0  0
  -13.8568    0.0000    0.0000 C   0  0  0  0  0  0  0  0  0  0  0  0
  -13.2441    1.4782    0.0000 H   0  0  0  0  0  0  0  0  0  0  0  0
  -14.4686    1.4782    0.0000 H   0  0  0  0  0  0  0  0  0  0  0  0
  -15.2421   -0.8000    0.0000 C   0  0  0  0  0  0  0  0  0  0  0  0
  -15.8540   -2.2782    0.0000 H   0  0  0  0  0  0  0  0  0  0  0  0
  -14.6294   -2.2782    0.0000 H   0  0  0  0  0  0  0  0  0  0  0  0
  -16.6274    0.0000    0.0000 C   0  0  0  0  0  0  0  0  0  0  0  0
  -16.0156    1.4782    0.0000 H   0  0  0  0  0  0  0  0  0  0  0  0
  -17.2401    1.4782    0.0000 H   0  0  0  0  0  0  0  0  0  0  0  0
  -18.0136   -0.8000    0.0000 C   0  0  0  0  0  0  0  0  0  0  0  0
  -18.6254   -2.2782    0.0000 H   0  0  0  0  0  0  0  0  0  0  0  0
  -17.4009   -2.2782    0.0000 H   0  0  0  0  0  0  0  0  0  0  0  0
  -19.3989    0.0000    0.0000 C   0  0  0  0  0  0  0  0  0  0  0  0
  -18.7871    1.4782    0.0000 H   0  0  0  0  0  0  0  0  0  0  0  0
  -20.0116    1.4782    0.0000 H   0  0  0  0  0  0  0  0  0  0  0  0
  -20.7842   -0.8000    0.0000 C   0  0  0  0  0  0  0  0  0  0  0  0
  -21.3969   -2.2782    0.0000 H   0  0  0  0  0  0  0  0  0  0  0  0
  -20.1724   -2.2782    0.0000 H   0  0  0  0  0  0  0  0  0  0  0  0
  -22.1704    0.0000    0.0000 C   0  0  0  0  0  0  0  0  0  0  0  0
  -21.5577    1.4782    0.0000 H   0  0  0  0  0  0  0  0  0  0  0  0
  -22.7822    1.4782    0.0000 H   0  0  0  0  0  0  0  0  0  0  0  0
  -23.5557   -0.8000    0.0000 C   0  0  0  0  0  0  0  0  0  0  0  0
  -24.1684   -2.2782    0.0000 H   0  0  0  0  0  0  0  0  0  0  0  0
  -22.9439   -2.2782    0.0000 H   0  0  0  0  0  0  0  0  0  0  0  0
  -24.9418    0.0000    0.0000 C   0  0  0  0  0  0  0  0  0  0  0  0
  -26.3272    0.8000    0.0000 H   0  0  0  0  0  0  0  0  0  0  0  0
  -26.3272   -0.8000    0.0000 H   0  0  0  0  0  0  0  0  0  0  0  0
  -24.9418    1.6000    0.0000 H   0  0  0  0  0  0  0  0  0  0  0  0
  1  2  1  0  0  0  0
  1  3  1  0  0  0  0
  1  4  1  0  0  0  0
  4  5  1  0  0  0  0
  4  6  1  0  0  0  0
  4  7  1  0  0  0  0
  7  8  1  0  0  0  0
  7  9  1  0  0  0  0
  7 10  1  0  0  0  0
 10 11  1  0  0  0  0
 10 12  1  0  0  0  0
 10 13  1  0  0  0  0
 13 14  1  0  0  0  0
 13 15  1  0  0  0  0
 13 16  1  0  0  0  0
 16 17  1  0  0  0  0
 16 18  1  0  0  0  0
 16 19  1  0  0  0  0
 19 20  1  0  0  0  0
 19 21  1  0  0  0  0
 19 22  1  0  0  0  0
 22 23  1  0  0  0  0
 22 24  1  0  0  0  0
 22 25  1  0  0  0  0
 25 26  1  0  0  0  0
 25 27  1  0  0  0  0
 25 28  1  0  0  0  0
 28 29  1  0  0  0  0
 28 30  1  0  0  0  0
 28 31  1  0  0  0  0
 31 32  1  0  0  0  0
 31 33  1  0  0  0  0
 31 34  1  0  0  0  0
 34 35  1  0  0  0  0
 34 36  1  0  0  0  0
 34 37  1  0  0  0  0
 37 38  1  0  0  0  0
 37 39  1  0  0  0  0
 37 40  1  0  0  0  0
 40 41  1  0  0  0  0
 40 42  1  0  0  0  0
 40 43  1  0  0  0  0
 43 44  1  0  0  0  0
 43 45  1  0  0  0  0
 43 46  1  0  0  0  0
 46 47  1  0  0  0  0
 46 48  1  0  0  0  0
 46 49  1  0  0  0  0
 49 50  1  0  0  0  0
 49 51  1  0  0  0  0
 49 52  1  0  0  0  0
 52 53  1  0  0  0  0
 52 54  1  0  0  0  0
 52 55  1  0  0  0  0
 55 56  1  0  0  0  0
 55 57  1  0  0  0  0
 55 58  1  0  0  0  0
 58 59  1  0  0  0  0
 58 60  1  0  0  0  0
 58 61  1  0  0  0  0
  1 62  1  0  0  0  0
 62 63  1  0  0  0  0
 62 64  1  0  0  0  0
 62 65  1  0  0  0  0
 65 66  1  0  0  0  0
 65 67  1  0  0  0  0
 65 68  1  0  0  0  0
 68 69  1  0  0  0  0
 68 70  1  0  0  0  0
 68 71  1  0  0  0  0
 71 72  1  0  0  0  0
 71 73  1  0  0  0  0
 71 74  1  0  0  0  0
 74 75  1  0  0  0  0
 74 76  1  0  0  0  0
 74 77  1  0  0  0  0
 77 78  1  0  0  0  0
 77 79  1  0  0  0  0
 77 80  1  0  0  0  0
 80 81  1  0  0  0  0
 80 82  1  0  0  0  0
 80 83  1  0  0  0  0
 83 84  1  0  0  0  0
 83 85  1  0  0  0  0
 83 86  1  0  0  0  0
 86 87  1  0  0  0  0
 86 88  1  0  0  0  0
 86 89  1  0  0  0  0
 89 90  1  0  0  0  0
 89 91  1  0  0  0  0
 89 92  1  0  0  0  0
 92 93  1  0  0  0  0
 92 94  1  0  0  0  0
 92 95  1  0  0  0  0
 95 96  1  0  0  0  0
 95 97  1  0  0  0  0
 95 98  1  0  0  0  0
 98 99  1  0  0  0  0
 98100  1  0  0  0  0
 98101  1  0  0  0  0
101102  1  0  0  0  0
101103  1  0  0  0  0
101104  1  0  0  0  0
104105  1  0  0  0  0
104106  1  0  0  0  0
104107  1  0  0  0  0
107108  1  0  0  0  0
107109  1  0  0  0  0
107110  1  0  0  0  0
110111  1  0  0  0  0
110112  1  0  0  0  0
110113  1  0  0  0  0
113114  1  0  0  0  0
113115  1  0  0  0  0
113116  1  0  0  0  0
M  END
> <ChemID>
105127

> <source_casrn>
7194-85-6

> <CAS>
7194-85-6

> <SMILES>
CCCCCCCCCCCCCCCCCCCCCCCCCCCCCCCCCCCCCC

> <NAME>
N-OCTATRIACONTANE

> <preferred_name>
Octatriacontane

> <iupac>
Octatriacontane

> <MPID>
24006

> <dsstox_substance_id>
DTXSID5064592

> <Canonical_QSARr>
CCCCCCCCCCCCCCCCCCCCCCCCCCCCCCCCCCCCCC

> <InChI_Code_QSARr>
InChI=1S/C38H78/c1-3-5-7-9-11-13-15-17-19-21-23-25-27-29-31-33-35-37-38-36-34-32-30-28-26-24-22-20-18-16-14-12-10-8-6-4-2/h3-38H2,1-2H3

> <InChI Key_QSARr>
BVKCQBBZBGYNOP-UHFFFAOYSA-N

> <Salt_Solvent>
?

> <BP>
512.0

$$$$
105131
  -INDIGO-08031720192D

 22 21  0  0  0  0  0  0  0  0999 V2000
   -2.7291   -0.4812    0.0000 N   0  0  0  0  0  0  0  0  0  0  0  0
   -1.5036    0.5472    0.0000 C   0  0  0  0  0  0  0  0  0  0  0  0
   -1.1572    2.1093    0.0000 H   0  0  0  0  0  0  0  0  0  0  0  0
   -2.3632    1.8966    0.0000 H   0  0  0  0  0  0  0  0  0  0  0  0
   -0.0000    0.0000    0.0000 C   0  0  0  0  0  0  0  0  0  0  0  0
   -0.8000   -1.3856    0.0000 H   0  0  0  0  0  0  0  0  0  0  0  0
    1.3856   -0.8000    0.0000 C   0  0  0  0  0  0  0  0  0  0  0  0
    2.7713   -1.6000    0.0000 H   0  0  0  0  0  0  0  0  0  0  0  0
    2.7713    0.0000    0.0000 H   0  0  0  0  0  0  0  0  0  0  0  0
    1.3856   -2.4000    0.0000 H   0  0  0  0  0  0  0  0  0  0  0  0
    0.8000    1.3857    0.0000 C   0  0  0  0  0  0  0  0  0  0  0  0
    1.6000    2.7713    0.0000 H   0  0  0  0  0  0  0  0  0  0  0  0
   -0.0000    2.7713    0.0000 H   0  0  0  0  0  0  0  0  0  0  0  0
    2.4000    1.3857    0.0000 H   0  0  0  0  0  0  0  0  0  0  0  0
   -4.2327    0.0660    0.0000 C   0  0  0  0  0  0  0  0  0  0  0  0
   -5.7362    0.6132    0.0000 H   0  0  0  0  0  0  0  0  0  0  0  0
   -5.4584   -0.9625    0.0000 H   0  0  0  0  0  0  0  0  0  0  0  0
   -4.5105    1.6417    0.0000 H   0  0  0  0  0  0  0  0  0  0  0  0
   -2.4513   -2.0569    0.0000 C   0  0  0  0  0  0  0  0  0  0  0  0
   -2.1735   -3.6326    0.0000 H   0  0  0  0  0  0  0  0  0  0  0  0
   -3.6771   -3.0854    0.0000 H   0  0  0  0  0  0  0  0  0  0  0  0
   -0.9478   -2.6041    0.0000 H   0  0  0  0  0  0  0  0  0  0  0  0
  1  2  1  0  0  0  0
  2  3  1  0  0  0  0
  2  4  1  0  0  0  0
  2  5  1  0  0  0  0
  5  6  1  0  0  0  0
  5  7  1  0  0  0  0
  7  8  1  0  0  0  0
  7  9  1  0  0  0  0
  7 10  1  0  0  0  0
  5 11  1  0  0  0  0
 11 12  1  0  0  0  0
 11 13  1  0  0  0  0
 11 14  1  0  0  0  0
  1 15  1  0  0  0  0
 15 16  1  0  0  0  0
 15 17  1  0  0  0  0
 15 18  1  0  0  0  0
  1 19  1  0  0  0  0
 19 20  1  0  0  0  0
 19 21  1  0  0  0  0
 19 22  1  0  0  0  0
M  END
> <ChemID>
105131

> <source_casrn>
7239-24-9

> <CAS>
7239-24-9

> <SMILES>
CC(C)CN(C)C

> <NAME>
1-Propanamine, N,N,2-trimethyl-

> <preferred_name>
1-Propanamine, N,N,2-trimethyl-

> <iupac>
N,N,2-trimethylpropan-1-amine

> <MPID>
24010

> <dsstox_substance_id>
DTXSID7064601

> <Canonical_QSARr>
CC(C)CN(C)C

> <InChI_Code_QSARr>
InChI=1S/C6H15N/c1-6(2)5-7(3)4/h6H,5H2,1-4H3

> <InChI Key_QSARr>
GDHRQDYGUDOEIZ-UHFFFAOYSA-N

> <Salt_Solvent>
?

> <BP>
80.5

$$$$
105135
  -INDIGO-08031720192D

 37 36  0  0  0  0  0  0  0  0999 V2000
    6.9282    0.8000    0.0000 C   0  0  0  0  0  0  0  0  0  0  0  0
    8.3138    1.6000    0.0000 H   0  0  0  0  0  0  0  0  0  0  0  0
    8.3138    0.0000    0.0000 H   0  0  0  0  0  0  0  0  0  0  0  0
    6.9282    2.4000    0.0000 H   0  0  0  0  0  0  0  0  0  0  0  0
    5.5426    0.0000    0.0000 C   0  0  0  0  0  0  0  0  0  0  0  0
    4.9302   -1.4782    0.0000 H   0  0  0  0  0  0  0  0  0  0  0  0
    6.1548   -1.4782    0.0000 H   0  0  0  0  0  0  0  0  0  0  0  0
    4.1570    0.8000    0.0000 C   0  0  0  0  0  0  0  0  0  0  0  0
    4.7692    2.2782    0.0000 H   0  0  0  0  0  0  0  0  0  0  0  0
    3.5446    2.2782    0.0000 H   0  0  0  0  0  0  0  0  0  0  0  0
    2.7712    0.0000    0.0000 C   0  0  0  0  0  0  0  0  0  0  0  0
    2.1590   -1.4782    0.0000 H   0  0  0  0  0  0  0  0  0  0  0  0
    3.3836   -1.4782    0.0000 H   0  0  0  0  0  0  0  0  0  0  0  0
    1.3856    0.8000    0.0000 C   0  0  0  0  0  0  0  0  0  0  0  0
    1.9980    2.2782    0.0000 H   0  0  0  0  0  0  0  0  0  0  0  0
    0.7735    2.2782    0.0000 H   0  0  0  0  0  0  0  0  0  0  0  0
   -0.0000    0.0000    0.0000 C   0  0  0  0  0  0  0  0  0  0  0  0
   -0.6124   -1.4782    0.0000 H   0  0  0  0  0  0  0  0  0  0  0  0
    0.6124   -1.4782    0.0000 H   0  0  0  0  0  0  0  0  0  0  0  0
   -1.3856    0.8000    0.0000 C   0  0  0  0  0  0  0  0  0  0  0  0
   -0.7732    2.2782    0.0000 H   0  0  0  0  0  0  0  0  0  0  0  0
   -1.9980    2.2782    0.0000 H   0  0  0  0  0  0  0  0  0  0  0  0
   -2.7712    0.0000    0.0000 C   0  0  0  0  0  0  0  0  0  0  0  0
   -3.3836   -1.4782    0.0000 H   0  0  0  0  0  0  0  0  0  0  0  0
   -2.1591   -1.4782    0.0000 H   0  0  0  0  0  0  0  0  0  0  0  0
   -4.1568    0.8000    0.0000 C   0  0  0  0  0  0  0  0  0  0  0  0
   -3.5447    2.2782    0.0000 H   0  0  0  0  0  0  0  0  0  0  0  0
   -4.7692    2.2782    0.0000 H   0  0  0  0  0  0  0  0  0  0  0  0
   -5.5427    0.0000    0.0000 C   0  0  0  0  0  0  0  0  0  0  0  0
   -6.1548   -1.4782    0.0000 H   0  0  0  0  0  0  0  0  0  0  0  0
   -4.9303   -1.4782    0.0000 H   0  0  0  0  0  0  0  0  0  0  0  0
   -6.9283    0.8000    0.0000 C   0  0  0  0  0  0  0  0  0  0  0  0
   -6.3159    2.2782    0.0000 H   0  0  0  0  0  0  0  0  0  0  0  0
   -7.5404    2.2782    0.0000 H   0  0  0  0  0  0  0  0  0  0  0  0
   -8.3139    0.0000    0.0000 N   0  0  0  0  0  0  0  0  0  0  0  0
   -9.6995    0.8000    0.0000 H   0  0  0  0  0  0  0  0  0  0  0  0
   -8.3139   -1.6000    0.0000 H   0  0  0  0  0  0  0  0  0  0  0  0
  1  2  1  0  0  0  0
  1  3  1  0  0  0  0
  1  4  1  0  0  0  0
  1  5  1  0  0  0  0
  5  6  1  0  0  0  0
  5  7  1  0  0  0  0
  5  8  1  0  0  0  0
  8  9  1  0  0  0  0
  8 10  1  0  0  0  0
  8 11  1  0  0  0  0
 11 12  1  0  0  0  0
 11 13  1  0  0  0  0
 11 14  1  0  0  0  0
 14 15  1  0  0  0  0
 14 16  1  0  0  0  0
 14 17  1  0  0  0  0
 17 18  1  0  0  0  0
 17 19  1  0  0  0  0
 17 20  1  0  0  0  0
 20 21  1  0  0  0  0
 20 22  1  0  0  0  0
 20 23  1  0  0  0  0
 23 24  1  0  0  0  0
 23 25  1  0  0  0  0
 23 26  1  0  0  0  0
 26 27  1  0  0  0  0
 26 28  1  0  0  0  0
 26 29  1  0  0  0  0
 29 30  1  0  0  0  0
 29 31  1  0  0  0  0
 29 32  1  0  0  0  0
 32 33  1  0  0  0  0
 32 34  1  0  0  0  0
 32 35  1  0  0  0  0
 35 36  1  0  0  0  0
 35 37  1  0  0  0  0
M  END
> <ChemID>
105135

> <source_casrn>
7307-55-3

> <CAS>
7307-55-3

> <SMILES>
CCCCCCCCCCCN

> <NAME>
N-UNDECYLAMIN

> <preferred_name>
Undecylamine

> <iupac>
undecan-1-amine

> <MPID>
24014

> <dsstox_substance_id>
DTXSID3022249

> <Canonical_QSARr>
CCCCCCCCCCCN

> <InChI_Code_QSARr>
InChI=1S/C11H25N/c1-2-3-4-5-6-7-8-9-10-11-12/h2-12H2,1H3

> <InChI Key_QSARr>
QFKMMXYLAPZKIB-UHFFFAOYSA-N

> <Salt_Solvent>
?

> <BP>
242.0

$$$$
105140
  -INDIGO-08031720192D

 25 25  0  0  0  0  0  0  0  0999 V2000
   -0.8000    1.3856    0.0000 C   0  0  0  0  0  0  0  0  0  0  0  0
    0.0000    2.7712    0.0000 O   0  0  0  0  0  0  0  0  0  0  0  0
    0.0000   -0.0000    0.0000 C   0  0  0  0  0  0  0  0  0  0  0  0
    1.6000   -0.0000    0.0000 C   0  0  0  0  0  0  0  0  0  0  0  0
    2.4000    1.3856    0.0000 O   0  0  0  0  0  0  0  0  0  0  0  0
    4.0000    1.3856    0.0000 C   0  0  0  0  0  0  0  0  0  0  0  0
    4.8000    2.7712    0.0000 H   0  0  0  0  0  0  0  0  0  0  0  0
    5.6000    1.3856    0.0000 H   0  0  0  0  0  0  0  0  0  0  0  0
    3.2000    2.7712    0.0000 H   0  0  0  0  0  0  0  0  0  0  0  0
    2.4000   -1.3857    0.0000 C   0  0  0  0  0  0  0  0  0  0  0  0
    4.0000   -1.3857    0.0000 H   0  0  0  0  0  0  0  0  0  0  0  0
    1.6000   -2.7713    0.0000 C   0  0  0  0  0  0  0  0  0  0  0  0
    2.4000   -4.1569    0.0000 H   0  0  0  0  0  0  0  0  0  0  0  0
    0.0000   -2.7713    0.0000 C   0  0  0  0  0  0  0  0  0  0  0  0
   -0.8000   -4.1569    0.0000 H   0  0  0  0  0  0  0  0  0  0  0  0
   -0.8000   -1.3857    0.0000 C   0  0  0  0  0  0  0  0  0  0  0  0
   -2.4000   -1.3857    0.0000 H   0  0  0  0  0  0  0  0  0  0  0  0
   -2.4000    1.3856    0.0000 O   0  0  0  0  0  0  0  0  0  0  0  0
   -3.2000    2.7712    0.0000 C   0  0  0  0  0  0  0  0  0  0  0  0
   -1.9307    3.7453    0.0000 H   0  0  0  0  0  0  0  0  0  0  0  0
   -2.9911    4.3576    0.0000 H   0  0  0  0  0  0  0  0  0  0  0  0
   -4.8000    2.7712    0.0000 C   0  0  0  0  0  0  0  0  0  0  0  0
   -6.4000    2.7712    0.0000 H   0  0  0  0  0  0  0  0  0  0  0  0
   -5.6000    4.1569    0.0000 H   0  0  0  0  0  0  0  0  0  0  0  0
   -5.6000    1.3856    0.0000 H   0  0  0  0  0  0  0  0  0  0  0  0
  1  2  2  0  0  0  0
  1  3  1  0  0  0  0
  3  4  1  0  0  0  0
  4  5  1  0  0  0  0
  5  6  1  0  0  0  0
  6  7  1  0  0  0  0
  6  8  1  0  0  0  0
  6  9  1  0  0  0  0
  4 10  2  0  0  0  0
 10 11  1  0  0  0  0
 10 12  1  0  0  0  0
 12 13  1  0  0  0  0
 12 14  2  0  0  0  0
 14 15  1  0  0  0  0
 14 16  1  0  0  0  0
 16  3  2  0  0  0  0
 16 17  1  0  0  0  0
  1 18  1  0  0  0  0
 18 19  1  0  0  0  0
 19 20  1  0  0  0  0
 19 21  1  0  0  0  0
 19 22  1  0  0  0  0
 22 23  1  0  0  0  0
 22 24  1  0  0  0  0
 22 25  1  0  0  0  0
M  END
> <ChemID>
105140

> <source_casrn>
7335-26-4

> <CAS>
7335-26-4

> <SMILES>
COc1ccccc1C(=O)OCC

> <NAME>
Benzoic acid, 2-methoxy-, ethyl ester

> <preferred_name>
Ethyl 2-methoxybenzoate

> <iupac>
ethyl 2-methoxybenzoate

> <MPID>
24019

> <dsstox_substance_id>
DTXSID9047126

> <Canonical_QSARr>
COc1ccccc1C(=O)OCC

> <InChI_Code_QSARr>
InChI=1S/C10H12O3/c1-3-13-10(11)8-6-4-5-7-9(8)12-2/h4-7H,3H2,1-2H3

> <InChI Key_QSARr>
FNODWEPAWIJGPM-UHFFFAOYSA-N

> <Salt_Solvent>
?

> <BP>
261.0

$$$$
105144
  -INDIGO-08031720192D

 15 15  0  0  0  0  0  0  0  0999 V2000
    0.0000    2.7713    0.0000 Cl  0  0  0  0  0  0  0  0  0  0  0  0
   -0.8001    1.3856    0.0000 C   0  0  0  0  0  0  0  0  0  0  0  0
    0.0000   -0.0000    0.0000 C   0  0  0  0  0  0  0  0  0  0  0  0
    1.6000   -0.0000    0.0000 C   0  0  0  0  0  0  0  0  0  0  0  0
    3.2000   -0.0000    0.0000 H   0  0  0  0  0  0  0  0  0  0  0  0
    2.4001    1.3856    0.0000 H   0  0  0  0  0  0  0  0  0  0  0  0
    2.4001   -1.3856    0.0000 H   0  0  0  0  0  0  0  0  0  0  0  0
   -0.7999   -1.3856    0.0000 C   0  0  0  0  0  0  0  0  0  0  0  0
    0.0000   -2.7713    0.0000 H   0  0  0  0  0  0  0  0  0  0  0  0
   -2.4001   -1.3856    0.0000 C   0  0  0  0  0  0  0  0  0  0  0  0
   -3.2000   -2.7713    0.0000 H   0  0  0  0  0  0  0  0  0  0  0  0
   -3.2000   -0.0000    0.0000 C   0  0  0  0  0  0  0  0  0  0  0  0
   -4.8000   -0.0000    0.0000 Cl  0  0  0  0  0  0  0  0  0  0  0  0
   -2.4001    1.3856    0.0000 C   0  0  0  0  0  0  0  0  0  0  0  0
   -3.2000    2.7713    0.0000 Cl  0  0  0  0  0  0  0  0  0  0  0  0
  1  2  1  0  0  0  0
  2  3  1  0  0  0  0
  3  4  1  0  0  0  0
  4  5  1  0  0  0  0
  4  6  1  0  0  0  0
  4  7  1  0  0  0  0
  3  8  2  0  0  0  0
  8  9  1  0  0  0  0
  8 10  1  0  0  0  0
 10 11  1  0  0  0  0
 10 12  2  0  0  0  0
 12 13  1  0  0  0  0
 12 14  1  0  0  0  0
 14  2  2  0  0  0  0
 14 15  1  0  0  0  0
M  END
> <ChemID>
105144

> <source_casrn>
7359-72-0

> <CAS>
7359-72-0

> <SMILES>
Cc1ccc(Cl)c(Cl)c1Cl

> <NAME>
2,3,4-TRICHLOROTOLUENE

> <preferred_name>
2,3,4-Trichlorotoluene

> <iupac>
1,2,3-trichloro-4-methylbenzene

> <MPID>
24023

> <dsstox_substance_id>
DTXSID60223778

> <Canonical_QSARr>
Cc1ccc(Cl)c(Cl)c1Cl

> <InChI_Code_QSARr>
InChI=1S/C7H5Cl3/c1-4-2-3-5(8)7(10)6(4)9/h2-3H,1H3

> <InChI Key_QSARr>
LHOGNQZQKDZOBP-UHFFFAOYSA-N

> <Salt_Solvent>
?

> <BP>
244.0

$$$$
105148
  -INDIGO-08031720192D

 34 33  0  0  0  0  0  0  0  0999 V2000
   -4.1570    0.8000    0.0000 C   0  0  0  0  0  0  0  0  0  0  0  0
   -3.5446    2.2782    0.0000 H   0  0  0  0  0  0  0  0  0  0  0  0
   -4.7691    2.2782    0.0000 H   0  0  0  0  0  0  0  0  0  0  0  0
   -2.7713    0.0000    0.0000 C   0  0  0  0  0  0  0  0  0  0  0  0
   -3.3836   -1.4782    0.0000 H   0  0  0  0  0  0  0  0  0  0  0  0
   -2.1589   -1.4782    0.0000 H   0  0  0  0  0  0  0  0  0  0  0  0
   -1.3856    0.8000    0.0000 C   0  0  0  0  0  0  0  0  0  0  0  0
   -0.7734    2.2782    0.0000 H   0  0  0  0  0  0  0  0  0  0  0  0
   -1.9979    2.2782    0.0000 H   0  0  0  0  0  0  0  0  0  0  0  0
   -0.0001    0.0000    0.0000 C   0  0  0  0  0  0  0  0  0  0  0  0
   -0.6122   -1.4782    0.0000 H   0  0  0  0  0  0  0  0  0  0  0  0
    0.6123   -1.4782    0.0000 H   0  0  0  0  0  0  0  0  0  0  0  0
    1.3856    0.8000    0.0000 C   0  0  0  0  0  0  0  0  0  0  0  0
    1.9980    2.2782    0.0000 H   0  0  0  0  0  0  0  0  0  0  0  0
    0.7732    2.2782    0.0000 H   0  0  0  0  0  0  0  0  0  0  0  0
    2.7713    0.0000    0.0000 C   0  0  0  0  0  0  0  0  0  0  0  0
    2.1589   -1.4782    0.0000 H   0  0  0  0  0  0  0  0  0  0  0  0
    3.3835   -1.4782    0.0000 H   0  0  0  0  0  0  0  0  0  0  0  0
    4.1570    0.8000    0.0000 C   0  0  0  0  0  0  0  0  0  0  0  0
    4.7692    2.2782    0.0000 H   0  0  0  0  0  0  0  0  0  0  0  0
    3.5446    2.2782    0.0000 H   0  0  0  0  0  0  0  0  0  0  0  0
    5.5425    0.0000    0.0000 C   0  0  0  0  0  0  0  0  0  0  0  0
    6.9282   -0.8000    0.0000 H   0  0  0  0  0  0  0  0  0  0  0  0
    6.9282    0.8000    0.0000 H   0  0  0  0  0  0  0  0  0  0  0  0
    5.5425   -1.6000    0.0000 H   0  0  0  0  0  0  0  0  0  0  0  0
   -5.5427    0.0000    0.0000 N   0  0  0  0  0  0  0  0  0  0  0  0
   -6.9281    0.8000    0.0000 C   0  0  0  0  0  0  0  0  0  0  0  0
   -8.3138    1.6000    0.0000 H   0  0  0  0  0  0  0  0  0  0  0  0
   -8.3138    0.0000    0.0000 H   0  0  0  0  0  0  0  0  0  0  0  0
   -6.9281    2.4000    0.0000 H   0  0  0  0  0  0  0  0  0  0  0  0
   -5.5427   -1.6000    0.0000 C   0  0  0  0  0  0  0  0  0  0  0  0
   -5.5427   -3.2000    0.0000 H   0  0  0  0  0  0  0  0  0  0  0  0
   -6.9281   -2.4000    0.0000 H   0  0  0  0  0  0  0  0  0  0  0  0
   -4.1570   -2.4000    0.0000 H   0  0  0  0  0  0  0  0  0  0  0  0
  1  2  1  0  0  0  0
  1  3  1  0  0  0  0
  1  4  1  0  0  0  0
  4  5  1  0  0  0  0
  4  6  1  0  0  0  0
  4  7  1  0  0  0  0
  7  8  1  0  0  0  0
  7  9  1  0  0  0  0
  7 10  1  0  0  0  0
 10 11  1  0  0  0  0
 10 12  1  0  0  0  0
 10 13  1  0  0  0  0
 13 14  1  0  0  0  0
 13 15  1  0  0  0  0
 13 16  1  0  0  0  0
 16 17  1  0  0  0  0
 16 18  1  0  0  0  0
 16 19  1  0  0  0  0
 19 20  1  0  0  0  0
 19 21  1  0  0  0  0
 19 22  1  0  0  0  0
 22 23  1  0  0  0  0
 22 24  1  0  0  0  0
 22 25  1  0  0  0  0
  1 26  1  0  0  0  0
 26 27  1  0  0  0  0
 27 28  1  0  0  0  0
 27 29  1  0  0  0  0
 27 30  1  0  0  0  0
 26 31  1  0  0  0  0
 31 32  1  0  0  0  0
 31 33  1  0  0  0  0
 31 34  1  0  0  0  0
M  END
> <ChemID>
105148

> <source_casrn>
7378-99-6

> <CAS>
7378-99-6

> <SMILES>
CCCCCCCCN(C)C

> <NAME>
Octyldimethylamine

> <preferred_name>
N,N-Dimethyloctylamine

> <iupac>
N,N-dimethyloctan-1-amine

> <MPID>
24027

> <dsstox_substance_id>
DTXSID2036299

> <Canonical_QSARr>
CCCCCCCCN(C)C

> <InChI_Code_QSARr>
InChI=1S/C10H23N/c1-4-5-6-7-8-9-10-11(2)3/h4-10H2,1-3H3

> <InChI Key_QSARr>
UQKAOOAFEFCDGT-UHFFFAOYSA-N

> <Salt_Solvent>
?

> <BP>
191.0

$$$$
105152
  -INDIGO-08031720192D

 21 20  0  0  0  0  0  0  0  0999 V2000
    1.6384   -2.0892    0.0000 C   0  0  0  0  0  0  0  0  0  0  0  0
    2.6668   -3.3148    0.0000 H   0  0  0  0  0  0  0  0  0  0  0  0
    0.0627   -2.3669    0.0000 H   0  0  0  0  0  0  0  0  0  0  0  0
    2.1856   -0.5856    0.0000 C   0  0  0  0  0  0  0  0  0  0  0  0
    3.7856   -0.5856    0.0000 H   0  0  0  0  0  0  0  0  0  0  0  0
    1.3856    0.8000    0.0000 C   0  0  0  0  0  0  0  0  0  0  0  0
    0.5857    2.1856    0.0000 H   0  0  0  0  0  0  0  0  0  0  0  0
    0.0000    0.0000    0.0000 C   0  0  0  0  0  0  0  0  0  0  0  0
    0.8000   -1.3857    0.0000 H   0  0  0  0  0  0  0  0  0  0  0  0
   -1.3856   -0.8000    0.0000 C   0  0  0  0  0  0  0  0  0  0  0  0
   -2.7713   -1.6000    0.0000 H   0  0  0  0  0  0  0  0  0  0  0  0
   -1.3856   -2.4000    0.0000 H   0  0  0  0  0  0  0  0  0  0  0  0
   -2.7713    0.0000    0.0000 H   0  0  0  0  0  0  0  0  0  0  0  0
   -0.8000    1.3857    0.0000 C   0  0  0  0  0  0  0  0  0  0  0  0
   -1.6000    2.7712    0.0000 H   0  0  0  0  0  0  0  0  0  0  0  0
   -2.4000    1.3857    0.0000 H   0  0  0  0  0  0  0  0  0  0  0  0
   -0.2528    2.8891    0.0000 H   0  0  0  0  0  0  0  0  0  0  0  0
    2.7713    1.6000    0.0000 C   0  0  0  0  0  0  0  0  0  0  0  0
    4.1569    2.4000    0.0000 H   0  0  0  0  0  0  0  0  0  0  0  0
    4.1569    0.8000    0.0000 H   0  0  0  0  0  0  0  0  0  0  0  0
    2.7713    3.2000    0.0000 H   0  0  0  0  0  0  0  0  0  0  0  0
  1  2  1  0  0  0  0
  1  3  1  0  0  0  0
  1  4  2  0  0  0  0
  4  5  1  0  0  0  0
  4  6  1  0  0  0  0
  6  7  1  0  0  0  0
  6  8  1  0  0  0  0
  8  9  1  0  0  0  0
  8 10  1  0  0  0  0
 10 11  1  0  0  0  0
 10 12  1  0  0  0  0
 10 13  1  0  0  0  0
  8 14  1  0  0  0  0
 14 15  1  0  0  0  0
 14 16  1  0  0  0  0
 14 17  1  0  0  0  0
  6 18  1  0  0  0  0
 18 19  1  0  0  0  0
 18 20  1  0  0  0  0
 18 21  1  0  0  0  0
M  END
> <ChemID>
105152

> <source_casrn>
7385-78-6

> <CAS>
NOCAS_871189

> <SMILES>
CC(C)C(C)C=C

> <NAME>
1-PENTENE, 3,4-DIMETHYL-

> <preferred_name>


> <iupac>


> <MPID>
24031

> <dsstox_substance_id>
DTXSID30871189

> <Canonical_QSARr>
CC(C)C(C)C=C

> <InChI_Code_QSARr>
InChI=1S/C7H14/c1-5-7(4)6(2)3/h5-7H,1H2,2-4H3

> <InChI Key_QSARr>
WFHXQNMTMDKVJG-UHFFFAOYSA-N

> <Salt_Solvent>
?

> <BP>
80.8

$$$$
105157
  -INDIGO-08031720192D

 16 15  0  0  0  0  0  0  0  0999 V2000
    1.3856    4.0000    0.0000 C   0  0  0  0  0  0  0  0  0  0  0  0
    2.7713    4.8000    0.0000 H   0  0  0  0  0  0  0  0  0  0  0  0
    0.0000    4.8000    0.0000 H   0  0  0  0  0  0  0  0  0  0  0  0
    1.3856    2.4000    0.0000 C   0  0  0  0  0  0  0  0  0  0  0  0
    1.3856    0.8000    0.0000 C   0  0  0  0  0  0  0  0  0  0  0  0
    0.0000    0.0000    0.0000 C   0  0  0  0  0  0  0  0  0  0  0  0
    0.6123   -1.4782    0.0000 H   0  0  0  0  0  0  0  0  0  0  0  0
   -0.6123   -1.4782    0.0000 H   0  0  0  0  0  0  0  0  0  0  0  0
   -1.3856    0.8000    0.0000 C   0  0  0  0  0  0  0  0  0  0  0  0
   -2.7713    1.6000    0.0000 H   0  0  0  0  0  0  0  0  0  0  0  0
   -2.7713    0.0000    0.0000 H   0  0  0  0  0  0  0  0  0  0  0  0
   -1.3856    2.4000    0.0000 H   0  0  0  0  0  0  0  0  0  0  0  0
    2.7713    0.0000    0.0000 C   0  0  0  0  0  0  0  0  0  0  0  0
    4.1569   -0.8000    0.0000 H   0  0  0  0  0  0  0  0  0  0  0  0
    4.1569    0.8000    0.0000 H   0  0  0  0  0  0  0  0  0  0  0  0
    2.7713   -1.6000    0.0000 H   0  0  0  0  0  0  0  0  0  0  0  0
  1  2  1  0  0  0  0
  1  3  1  0  0  0  0
  1  4  2  0  0  0  0
  4  5  2  0  0  0  0
  5  6  1  0  0  0  0
  6  7  1  0  0  0  0
  6  8  1  0  0  0  0
  6  9  1  0  0  0  0
  9 10  1  0  0  0  0
  9 11  1  0  0  0  0
  9 12  1  0  0  0  0
  5 13  1  0  0  0  0
 13 14  1  0  0  0  0
 13 15  1  0  0  0  0
 13 16  1  0  0  0  0
M  END
> <ChemID>
105157

> <source_casrn>
7417-48-3

> <CAS>
NOCAS_871192

> <SMILES>
CCC(C)=C=C

> <NAME>
3-METHYL-1,2-PENTADIENE

> <preferred_name>


> <iupac>


> <MPID>
24035

> <dsstox_substance_id>
DTXSID60871192

> <Canonical_QSARr>
CCC(C)=C=C

> <InChI_Code_QSARr>
InChI=1S/C6H10/c1-4-6(3)5-2/h1,5H2,2-3H3

> <InChI Key_QSARr>
INFFCVIZNSUFGK-UHFFFAOYSA-N

> <Salt_Solvent>
?

> <BP>
70.0

$$$$
105165
  -INDIGO-08031720192D

 25 24  0  0  0  0  0  0  0  0999 V2000
    1.3857   -0.8000    0.0000 N   0  0  0  0  0  0  0  0  0  0  0  0
    1.3857   -2.4000    0.0000 H   0  0  0  0  0  0  0  0  0  0  0  0
    0.0000   -0.0000    0.0000 C   0  0  0  0  0  0  0  0  0  0  0  0
   -1.3856    0.8000    0.0000 C   0  0  0  0  0  0  0  0  0  0  0  0
   -2.7713    1.6000    0.0000 H   0  0  0  0  0  0  0  0  0  0  0  0
   -2.7713   -0.0000    0.0000 H   0  0  0  0  0  0  0  0  0  0  0  0
   -1.6635    2.3757    0.0000 H   0  0  0  0  0  0  0  0  0  0  0  0
    0.8000    1.3857    0.0000 C   0  0  0  0  0  0  0  0  0  0  0  0
    1.8284    2.6113    0.0000 H   0  0  0  0  0  0  0  0  0  0  0  0
    0.2527    2.8891    0.0000 H   0  0  0  0  0  0  0  0  0  0  0  0
   -0.7756    1.6634    0.0000 H   0  0  0  0  0  0  0  0  0  0  0  0
   -0.8000   -1.3856    0.0000 C   0  0  0  0  0  0  0  0  0  0  0  0
   -1.6000   -2.7713    0.0000 H   0  0  0  0  0  0  0  0  0  0  0  0
    0.0000   -2.7713    0.0000 H   0  0  0  0  0  0  0  0  0  0  0  0
   -2.4000   -1.3856    0.0000 H   0  0  0  0  0  0  0  0  0  0  0  0
    2.7713   -0.0000    0.0000 C   0  0  0  0  0  0  0  0  0  0  0  0
    1.9713    1.3857    0.0000 H   0  0  0  0  0  0  0  0  0  0  0  0
    4.1570    0.8000    0.0000 C   0  0  0  0  0  0  0  0  0  0  0  0
    5.5426    1.6000    0.0000 H   0  0  0  0  0  0  0  0  0  0  0  0
    5.5426   -0.0000    0.0000 H   0  0  0  0  0  0  0  0  0  0  0  0
    4.1570    2.4000    0.0000 H   0  0  0  0  0  0  0  0  0  0  0  0
    3.5713   -1.3856    0.0000 C   0  0  0  0  0  0  0  0  0  0  0  0
    4.3713   -2.7713    0.0000 H   0  0  0  0  0  0  0  0  0  0  0  0
    5.1712   -1.3856    0.0000 H   0  0  0  0  0  0  0  0  0  0  0  0
    2.7713   -2.7713    0.0000 H   0  0  0  0  0  0  0  0  0  0  0  0
  1  2  1  0  0  0  0
  1  3  1  0  0  0  0
  3  4  1  0  0  0  0
  4  5  1  0  0  0  0
  4  6  1  0  0  0  0
  4  7  1  0  0  0  0
  3  8  1  0  0  0  0
  8  9  1  0  0  0  0
  8 10  1  0  0  0  0
  8 11  1  0  0  0  0
  3 12  1  0  0  0  0
 12 13  1  0  0  0  0
 12 14  1  0  0  0  0
 12 15  1  0  0  0  0
  1 16  1  0  0  0  0
 16 17  1  0  0  0  0
 16 18  1  0  0  0  0
 18 19  1  0  0  0  0
 18 20  1  0  0  0  0
 18 21  1  0  0  0  0
 16 22  1  0  0  0  0
 22 23  1  0  0  0  0
 22 24  1  0  0  0  0
 22 25  1  0  0  0  0
M  END
> <ChemID>
105165

> <source_casrn>
7515-80-2

> <CAS>
7515-80-2

> <SMILES>
CC(C)NC(C)(C)C

> <NAME>
2-PROPANAMINE, 2-METHYL-N-(1-METHYLETHYL)-

> <preferred_name>
2-Propanamine, 2-methyl-N-(1-methylethyl)-

> <iupac>
2-methyl-N-propan-2-ylpropan-2-amine

> <MPID>
24039

> <dsstox_substance_id>
DTXSID8064729

> <Canonical_QSARr>
CC(C)NC(C)(C)C

> <InChI_Code_QSARr>
InChI=1S/C7H17N/c1-6(2)8-7(3,4)5/h6,8H,1-5H3

> <InChI Key_QSARr>
ZWXQPERWRDHCMZ-UHFFFAOYSA-N

> <Salt_Solvent>
?

> <BP>
98.0

$$$$
105169
  -INDIGO-08031720192D

 12 12  0  0  0  0  0  0  0  0999 V2000
    2.3651   -1.0530    0.0000 N   0  0  0  0  0  0  0  0  0  0  0  0
    3.9563   -1.2203    0.0000 H   0  0  0  0  0  0  0  0  0  0  0  0
    1.2945   -2.2420    0.0000 N   0  0  0  0  0  0  0  0  0  0  0  0
   -0.1672   -1.5912    0.0000 C   0  0  0  0  0  0  0  0  0  0  0  0
   -1.5529   -2.3912    0.0000 H   0  0  0  0  0  0  0  0  0  0  0  0
    0.0000   -0.0000    0.0000 C   0  0  0  0  0  0  0  0  0  0  0  0
   -1.1890    1.0706    0.0000 C   0  0  0  0  0  0  0  0  0  0  0  0
   -2.3781    2.1412    0.0000 H   0  0  0  0  0  0  0  0  0  0  0  0
   -2.7107    0.5762    0.0000 H   0  0  0  0  0  0  0  0  0  0  0  0
   -0.8564    2.6356    0.0000 H   0  0  0  0  0  0  0  0  0  0  0  0
    1.5651    0.3326    0.0000 C   0  0  0  0  0  0  0  0  0  0  0  0
    2.2158    1.7943    0.0000 H   0  0  0  0  0  0  0  0  0  0  0  0
  1  2  1  0  0  0  0
  1  3  1  0  0  0  0
  3  4  2  0  0  0  0
  4  5  1  0  0  0  0
  4  6  1  0  0  0  0
  6  7  1  0  0  0  0
  7  8  1  0  0  0  0
  7  9  1  0  0  0  0
  7 10  1  0  0  0  0
  6 11  2  0  0  0  0
 11  1  1  0  0  0  0
 11 12  1  0  0  0  0
M  END
> <ChemID>
105169

> <source_casrn>
7554-65-6

> <CAS>
7554-65-6

> <SMILES>
Cc1c[nH][n]c1

> <NAME>
1H-PYRAZOLE, 4-METHYL-

> <preferred_name>
4-Methylpyrazole

> <iupac>
4-methyl-1H-pyrazole

> <MPID>
24043

> <dsstox_substance_id>
DTXSID3040649

> <Canonical_QSARr>
Cc1c[nH][n]c1

> <InChI_Code_QSARr>
InChI=1S/C4H6N2/c1-4-2-5-6-3-4/h2-3H,1H3,(H,5,6)

> <InChI Key_QSARr>
RIKMMFOAQPJVMX-UHFFFAOYSA-N

> <Salt_Solvent>
?

> <BP>
206.0

$$$$
105173
  -INDIGO-08031720192D

 14 13  0  0  0  0  0  0  0  0999 V2000
    1.3856   -0.8000    0.0000 C   0  0  0  0  0  0  0  0  0  0  0  0
    2.7713   -1.6000    0.0000 H   0  0  0  0  0  0  0  0  0  0  0  0
    2.7713    0.0000    0.0000 H   0  0  0  0  0  0  0  0  0  0  0  0
    1.3856   -2.4000    0.0000 H   0  0  0  0  0  0  0  0  0  0  0  0
    0.0000    0.0000    0.0000 C   0  0  0  0  0  0  0  0  0  0  0  0
    0.6123    1.4782    0.0000 H   0  0  0  0  0  0  0  0  0  0  0  0
   -0.6123    1.4782    0.0000 Cl  0  0  0  0  0  0  0  0  0  0  0  0
   -1.3856   -0.8000    0.0000 C   0  0  0  0  0  0  0  0  0  0  0  0
   -1.9980   -2.2782    0.0000 H   0  0  0  0  0  0  0  0  0  0  0  0
   -0.7733   -2.2782    0.0000 Cl  0  0  0  0  0  0  0  0  0  0  0  0
   -2.7713    0.0000    0.0000 C   0  0  0  0  0  0  0  0  0  0  0  0
   -4.1569    0.8000    0.0000 H   0  0  0  0  0  0  0  0  0  0  0  0
   -4.1569   -0.8000    0.0000 H   0  0  0  0  0  0  0  0  0  0  0  0
   -2.7713    1.6000    0.0000 H   0  0  0  0  0  0  0  0  0  0  0  0
  1  2  1  0  0  0  0
  1  3  1  0  0  0  0
  1  4  1  0  0  0  0
  1  5  1  0  0  0  0
  5  6  1  0  0  0  0
  5  7  1  0  0  0  0
  5  8  1  0  0  0  0
  8  9  1  0  0  0  0
  8 10  1  0  0  0  0
  8 11  1  0  0  0  0
 11 12  1  0  0  0  0
 11 13  1  0  0  0  0
 11 14  1  0  0  0  0
M  END
> <ChemID>
105173

> <source_casrn>
7581-97-7

> <CAS>
7581-97-7

> <SMILES>
CC(Cl)C(C)Cl

> <NAME>
2,3-DICHLOROBUTANE

> <preferred_name>
2,3-Dichlorobutane

> <iupac>
2,3-dichlorobutane

> <MPID>
24047

> <dsstox_substance_id>
DTXSID8021565

> <Canonical_QSARr>
CC(Cl)C(C)Cl

> <InChI_Code_QSARr>
InChI=1S/C4H8Cl2/c1-3(5)4(2)6/h3-4H,1-2H3

> <InChI Key_QSARr>
RMISVOPUIFJTEO-UHFFFAOYSA-N

> <Salt_Solvent>
?

> <BP>
118.0

$$$$
105181
  -INDIGO-08031720192D

 20 21  0  0  0  0  0  0  0  0999 V2000
   -2.4000   -1.3856    0.0000 N   0  0  0  0  0  0  0  0  0  0  0  0
   -0.8000   -1.3856    0.0000 C   0  0  0  0  0  0  0  0  0  0  0  0
   -0.0000   -2.7713    0.0000 C   0  0  0  0  0  0  0  0  0  0  0  0
   -0.8000   -4.1569    0.0000 H   0  0  0  0  0  0  0  0  0  0  0  0
    1.6000   -2.7713    0.0000 C   0  0  0  0  0  0  0  0  0  0  0  0
    2.4001   -4.1569    0.0000 H   0  0  0  0  0  0  0  0  0  0  0  0
    2.4001   -1.3856    0.0000 C   0  0  0  0  0  0  0  0  0  0  0  0
    4.0000   -1.3856    0.0000 H   0  0  0  0  0  0  0  0  0  0  0  0
    1.6000    0.0000    0.0000 C   0  0  0  0  0  0  0  0  0  0  0  0
    2.4001    1.3856    0.0000 C   0  0  0  0  0  0  0  0  0  0  0  0
    3.2000    2.7713    0.0000 H   0  0  0  0  0  0  0  0  0  0  0  0
    4.0000    1.3856    0.0000 H   0  0  0  0  0  0  0  0  0  0  0  0
    1.6000    2.7713    0.0000 H   0  0  0  0  0  0  0  0  0  0  0  0
   -0.0000    0.0000    0.0000 C   0  0  0  0  0  0  0  0  0  0  0  0
   -0.8000    1.3856    0.0000 C   0  0  0  0  0  0  0  0  0  0  0  0
   -0.0000    2.7713    0.0000 H   0  0  0  0  0  0  0  0  0  0  0  0
   -2.4000    1.3856    0.0000 C   0  0  0  0  0  0  0  0  0  0  0  0
   -3.2001    2.7713    0.0000 H   0  0  0  0  0  0  0  0  0  0  0  0
   -3.2001    0.0000    0.0000 C   0  0  0  0  0  0  0  0  0  0  0  0
   -4.8000    0.0000    0.0000 H   0  0  0  0  0  0  0  0  0  0  0  0
  1  2  1  0  0  0  0
  2  3  1  0  0  0  0
  3  4  1  0  0  0  0
  3  5  2  0  0  0  0
  5  6  1  0  0  0  0
  5  7  1  0  0  0  0
  7  8  1  0  0  0  0
  7  9  2  0  0  0  0
  9 10  1  0  0  0  0
 10 11  1  0  0  0  0
 10 12  1  0  0  0  0
 10 13  1  0  0  0  0
  9 14  1  0  0  0  0
 14  2  2  0  0  0  0
 14 15  1  0  0  0  0
 15 16  1  0  0  0  0
 15 17  2  0  0  0  0
 17 18  1  0  0  0  0
 17 19  1  0  0  0  0
 19  1  2  0  0  0  0
 19 20  1  0  0  0  0
M  END
> <ChemID>
105181

> <source_casrn>
7661-55-4

> <CAS>
7661-55-4

> <SMILES>
Cc1cccc2[n]cccc21

> <NAME>
QUINOLINE, 5-METHYL-

> <preferred_name>
Quinoline, 5-methyl-

> <iupac>
5-Methylquinoline

> <MPID>
24053

> <dsstox_substance_id>
DTXSID40227431

> <Canonical_QSARr>
Cc1cccc2[n]cccc21

> <InChI_Code_QSARr>
InChI=1S/C10H9N/c1-8-4-2-6-10-9(8)5-3-7-11-10/h2-7H,1H3

> <InChI Key_QSARr>
LMYVCXSKCQSIEQ-UHFFFAOYSA-N

> <Salt_Solvent>
?

> <BP>
262.7

$$$$
105192
  -INDIGO-08031720192D

 19 18  0  0  0  0  0  0  0  0999 V2000
   -1.3856    0.8000    0.0000 C   0  0  0  0  0  0  0  0  0  0  0  0
   -0.7733    2.2782    0.0000 H   0  0  0  0  0  0  0  0  0  0  0  0
   -1.9979    2.2782    0.0000 H   0  0  0  0  0  0  0  0  0  0  0  0
    0.0000    0.0000    0.0000 C   0  0  0  0  0  0  0  0  0  0  0  0
   -0.8000   -1.3857    0.0000 H   0  0  0  0  0  0  0  0  0  0  0  0
    1.3857   -0.8000    0.0000 C   0  0  0  0  0  0  0  0  0  0  0  0
    2.7713   -1.6000    0.0000 H   0  0  0  0  0  0  0  0  0  0  0  0
    1.3857   -2.4000    0.0000 H   0  0  0  0  0  0  0  0  0  0  0  0
    2.7713    0.0000    0.0000 H   0  0  0  0  0  0  0  0  0  0  0  0
    0.8000    1.3857    0.0000 O   0  0  0  0  0  0  0  0  0  0  0  0
    0.2527    2.8891    0.0000 C   0  0  0  0  0  0  0  0  0  0  0  0
    1.2812    4.1148    0.0000 H   0  0  0  0  0  0  0  0  0  0  0  0
   -0.2944    4.3927    0.0000 H   0  0  0  0  0  0  0  0  0  0  0  0
   -1.3229    3.1670    0.0000 H   0  0  0  0  0  0  0  0  0  0  0  0
   -2.7713    0.0000    0.0000 O   0  0  0  0  0  0  0  0  0  0  0  0
   -4.1569    0.8000    0.0000 C   0  0  0  0  0  0  0  0  0  0  0  0
   -5.5426    1.6000    0.0000 H   0  0  0  0  0  0  0  0  0  0  0  0
   -5.5426    0.0000    0.0000 H   0  0  0  0  0  0  0  0  0  0  0  0
   -4.1569    2.4000    0.0000 H   0  0  0  0  0  0  0  0  0  0  0  0
  1  2  1  0  0  0  0
  1  3  1  0  0  0  0
  1  4  1  0  0  0  0
  4  5  1  0  0  0  0
  4  6  1  0  0  0  0
  6  7  1  0  0  0  0
  6  8  1  0  0  0  0
  6  9  1  0  0  0  0
  4 10  1  0  0  0  0
 10 11  1  0  0  0  0
 11 12  1  0  0  0  0
 11 13  1  0  0  0  0
 11 14  1  0  0  0  0
  1 15  1  0  0  0  0
 15 16  1  0  0  0  0
 16 17  1  0  0  0  0
 16 18  1  0  0  0  0
 16 19  1  0  0  0  0
M  END
> <ChemID>
105192

> <source_casrn>
7778-85-0

> <CAS>
NOCAS_871197

> <SMILES>
COC(C)COC

> <NAME>
1,2-DIMETHOXYPROPANE

> <preferred_name>


> <iupac>


> <MPID>
24057

> <dsstox_substance_id>
DTXSID60871197

> <Canonical_QSARr>
COC(C)COC

> <InChI_Code_QSARr>
InChI=1S/C5H12O2/c1-5(7-3)4-6-2/h5H,4H2,1-3H3

> <InChI Key_QSARr>
LEEANUDEDHYDTG-UHFFFAOYSA-N

> <Salt_Solvent>
?

> <BP>
96.0

$$$$
105198
  -INDIGO-08031720192D

 27 28  0  0  0  0  0  0  0  0999 V2000
   -2.3160    0.5964    0.0000 C   0  0  0  0  0  0  0  0  0  0  0  0
   -1.4102   -0.7757    0.0000 C   0  0  0  0  0  0  0  0  0  0  0  0
   -1.7938   -2.3290    0.0000 O   0  0  0  0  0  0  0  0  0  0  0  0
   -0.0001    0.0000    0.0000 C   0  0  0  0  0  0  0  0  0  0  0  0
    0.0645    1.7072    0.0000 C   0  0  0  0  0  0  0  0  0  0  0  0
    1.5715    1.1694    0.0000 H   0  0  0  0  0  0  0  0  0  0  0  0
    1.0299    2.9830    0.0000 H   0  0  0  0  0  0  0  0  0  0  0  0
   -0.8100    2.9373    0.0000 C   0  0  0  0  0  0  0  0  0  0  0  0
    0.2111    4.1690    0.0000 H   0  0  0  0  0  0  0  0  0  0  0  0
   -2.2633    3.6066    0.0000 H   0  0  0  0  0  0  0  0  0  0  0  0
   -1.0821    1.3606    0.0000 C   0  0  0  0  0  0  0  0  0  0  0  0
   -2.2329    2.4723    0.0000 H   0  0  0  0  0  0  0  0  0  0  0  0
    1.4644   -0.4133    0.0000 C   0  0  0  0  0  0  0  0  0  0  0  0
    2.4466   -1.6763    0.0000 H   0  0  0  0  0  0  0  0  0  0  0  0
    2.8286    0.4229    0.0000 H   0  0  0  0  0  0  0  0  0  0  0  0
    0.1819   -1.5896    0.0000 C   0  0  0  0  0  0  0  0  0  0  0  0
    0.3638   -3.1793    0.0000 H   0  0  0  0  0  0  0  0  0  0  0  0
    1.5165   -2.4721    0.0000 H   0  0  0  0  0  0  0  0  0  0  0  0
   -0.9189   -2.7507    0.0000 H   0  0  0  0  0  0  0  0  0  0  0  0
   -3.1717    1.9484    0.0000 C   0  0  0  0  0  0  0  0  0  0  0  0
   -4.7704    1.8834    0.0000 H   0  0  0  0  0  0  0  0  0  0  0  0
   -4.0272    3.3004    0.0000 H   0  0  0  0  0  0  0  0  0  0  0  0
   -3.9147    0.5314    0.0000 H   0  0  0  0  0  0  0  0  0  0  0  0
   -3.4885   -0.4923    0.0000 C   0  0  0  0  0  0  0  0  0  0  0  0
   -4.6609   -1.5811    0.0000 H   0  0  0  0  0  0  0  0  0  0  0  0
   -3.1318   -2.0521    0.0000 H   0  0  0  0  0  0  0  0  0  0  0  0
   -5.0176   -0.0214    0.0000 H   0  0  0  0  0  0  0  0  0  0  0  0
  1  2  1  0  0  0  0
  2  3  2  0  0  0  0
  2  4  1  0  0  0  0
  4  5  1  0  0  0  0
  5  6  1  0  0  0  0
  5  7  1  0  0  0  0
  5  8  1  0  0  0  0
  8  9  1  0  0  0  0
  8 10  1  0  0  0  0
  8 11  1  0  0  0  0
 11  1  1  0  0  0  0
 11 12  1  0  0  0  0
 11 13  1  0  0  0  0
 13  4  1  0  0  0  0
 13 14  1  0  0  0  0
 13 15  1  0  0  0  0
  4 16  1  0  0  0  0
 16 17  1  0  0  0  0
 16 18  1  0  0  0  0
 16 19  1  0  0  0  0
  1 20  1  0  0  0  0
 20 21  1  0  0  0  0
 20 22  1  0  0  0  0
 20 23  1  0  0  0  0
  1 24  1  0  0  0  0
 24 25  1  0  0  0  0
 24 26  1  0  0  0  0
 24 27  1  0  0  0  0
M  END
> <ChemID>
105198

> <source_casrn>
7787-20-4

> <CAS>
4695-62-9

> <SMILES>
CC1(C)[C@H]2C[C@](C)(CC2)C1=O

> <NAME>
(1R)-(-)-Fenchone

> <preferred_name>
d-Fenchone

> <iupac>
C10H16O

> <MPID>
24063

> <dsstox_substance_id>
DTXSID60858862

> <Canonical_QSARr>
CC1(C)C2CC(C)(CC2)C1=O

> <InChI_Code_QSARr>
InChI=1S/C10H16O/c1-9(2)7-4-5-10(3,6-7)8(9)11/h7H,4-6H2,1-3H3

> <InChI Key_QSARr>
LHXDLQBQYFFVNW-UHFFFAOYSA-N

> <Salt_Solvent>
?

> <BP>
193.0

$$$$
105203
  -INDIGO-08031720192D

 36 37  0  0  0  0  0  0  0  0999 V2000
    1.3856    0.8000    0.0000 N   0  0  0  0  0  0  0  0  0  0  0  0
    1.3856    2.4000    0.0000 H   0  0  0  0  0  0  0  0  0  0  0  0
    2.7712   -0.0000    0.0000 C   0  0  0  0  0  0  0  0  0  0  0  0
    1.9713   -1.3856    0.0000 H   0  0  0  0  0  0  0  0  0  0  0  0
    4.1569   -0.8000    0.0000 C   0  0  0  0  0  0  0  0  0  0  0  0
    5.6604   -0.2528    0.0000 C   0  0  0  0  0  0  0  0  0  0  0  0
    6.2076    1.2507    0.0000 H   0  0  0  0  0  0  0  0  0  0  0  0
    6.8862   -1.2813    0.0000 C   0  0  0  0  0  0  0  0  0  0  0  0
    8.3896   -0.7340    0.0000 H   0  0  0  0  0  0  0  0  0  0  0  0
    6.6083   -2.8569    0.0000 C   0  0  0  0  0  0  0  0  0  0  0  0
    7.8339   -3.8853    0.0000 H   0  0  0  0  0  0  0  0  0  0  0  0
    5.1049   -3.4042    0.0000 C   0  0  0  0  0  0  0  0  0  0  0  0
    4.8270   -4.9798    0.0000 H   0  0  0  0  0  0  0  0  0  0  0  0
    3.8791   -2.3757    0.0000 C   0  0  0  0  0  0  0  0  0  0  0  0
    2.3756   -2.9229    0.0000 H   0  0  0  0  0  0  0  0  0  0  0  0
    3.5712    1.3857    0.0000 C   0  0  0  0  0  0  0  0  0  0  0  0
    4.3712    2.7713    0.0000 H   0  0  0  0  0  0  0  0  0  0  0  0
    5.1712    1.3857    0.0000 H   0  0  0  0  0  0  0  0  0  0  0  0
    2.7712    2.7713    0.0000 H   0  0  0  0  0  0  0  0  0  0  0  0
   -0.0001   -0.0000    0.0000 C   0  0  0  0  0  0  0  0  0  0  0  0
    0.8001   -1.3856    0.0000 H   0  0  0  0  0  0  0  0  0  0  0  0
   -1.3856   -0.8000    0.0000 C   0  0  0  0  0  0  0  0  0  0  0  0
   -2.7712   -0.0000    0.0000 C   0  0  0  0  0  0  0  0  0  0  0  0
   -2.7712    1.6000    0.0000 H   0  0  0  0  0  0  0  0  0  0  0  0
   -4.1569   -0.8000    0.0000 C   0  0  0  0  0  0  0  0  0  0  0  0
   -5.5426   -0.0000    0.0000 H   0  0  0  0  0  0  0  0  0  0  0  0
   -4.1569   -2.4000    0.0000 C   0  0  0  0  0  0  0  0  0  0  0  0
   -5.5426   -3.2000    0.0000 H   0  0  0  0  0  0  0  0  0  0  0  0
   -2.7712   -3.2000    0.0000 C   0  0  0  0  0  0  0  0  0  0  0  0
   -2.7712   -4.8000    0.0000 H   0  0  0  0  0  0  0  0  0  0  0  0
   -1.3856   -2.4000    0.0000 C   0  0  0  0  0  0  0  0  0  0  0  0
   -0.0001   -3.2000    0.0000 H   0  0  0  0  0  0  0  0  0  0  0  0
   -1.0284    1.2257    0.0000 C   0  0  0  0  0  0  0  0  0  0  0  0
   -2.0569    2.4513    0.0000 H   0  0  0  0  0  0  0  0  0  0  0  0
   -0.4812    2.7292    0.0000 H   0  0  0  0  0  0  0  0  0  0  0  0
    0.5473    1.5035    0.0000 H   0  0  0  0  0  0  0  0  0  0  0  0
  1  2  1  0  0  0  0
  1  3  1  0  0  0  0
  3  4  1  0  0  0  0
  3  5  1  0  0  0  0
  5  6  1  0  0  0  0
  6  7  1  0  0  0  0
  6  8  2  0  0  0  0
  8  9  1  0  0  0  0
  8 10  1  0  0  0  0
 10 11  1  0  0  0  0
 10 12  2  0  0  0  0
 12 13  1  0  0  0  0
 12 14  1  0  0  0  0
 14  5  2  0  0  0  0
 14 15  1  0  0  0  0
  3 16  1  0  0  0  0
 16 17  1  0  0  0  0
 16 18  1  0  0  0  0
 16 19  1  0  0  0  0
  1 20  1  0  0  0  0
 20 21  1  0  0  0  0
 20 22  1  0  0  0  0
 22 23  1  0  0  0  0
 23 24  1  0  0  0  0
 23 25  2  0  0  0  0
 25 26  1  0  0  0  0
 25 27  1  0  0  0  0
 27 28  1  0  0  0  0
 27 29  2  0  0  0  0
 29 30  1  0  0  0  0
 29 31  1  0  0  0  0
 31 22  2  0  0  0  0
 31 32  1  0  0  0  0
 20 33  1  0  0  0  0
 33 34  1  0  0  0  0
 33 35  1  0  0  0  0
 33 36  1  0  0  0  0
M  END
> <ChemID>
105203

> <source_casrn>
10024-74-5

> <CAS>
56210-72-1

> <SMILES>
C[C@H](N[C@@H](C)c1ccccc1)c1ccccc1

> <NAME>
Bis(alpha-methylbenzyl)amine

> <preferred_name>
(-)-Bis[(S)-1-phenylethyl]amine

> <iupac>
C16H19N

> <MPID>
24067

> <dsstox_substance_id>
DTXSID00426403

> <Canonical_QSARr>
CC(NC(C)c1ccccc1)c1ccccc1

> <InChI_Code_QSARr>
InChI=1S/C16H19N/c1-13(15-9-5-3-6-10-15)17-14(2)16-11-7-4-8-12-16/h3-14,17H,1-2H3

> <InChI Key_QSARr>
NXLACVVNHYIYJN-UHFFFAOYSA-N

> <Salt_Solvent>
?

> <BP>
296.5

$$$$
105207
  -INDIGO-08031720192D

 33 32  0  0  0  0  0  0  0  0999 V2000
    0.0000    1.6000    0.0000 C   0  0  0  0  0  0  0  0  0  0  0  0
    0.9740    2.8693    0.0000 H   0  0  0  0  0  0  0  0  0  0  0  0
    1.5862    1.8088    0.0000 H   0  0  0  0  0  0  0  0  0  0  0  0
    0.0000    0.0000    0.0000 C   0  0  0  0  0  0  0  0  0  0  0  0
    0.0000   -1.6000    0.0000 H   0  0  0  0  0  0  0  0  0  0  0  0
    1.5757   -0.2778    0.0000 C   0  0  0  0  0  0  0  0  0  0  0  0
    0.9634   -1.7561    0.0000 H   0  0  0  0  0  0  0  0  0  0  0  0
    2.1879   -1.7561    0.0000 H   0  0  0  0  0  0  0  0  0  0  0  0
    3.0793    0.2694    0.0000 C   0  0  0  0  0  0  0  0  0  0  0  0
    3.9389    1.6188    0.0000 H   0  0  0  0  0  0  0  0  0  0  0  0
    2.7328    1.8315    0.0000 H   0  0  0  0  0  0  0  0  0  0  0  0
    4.3048   -0.7591    0.0000 C   0  0  0  0  0  0  0  0  0  0  0  0
    3.4451   -2.1085    0.0000 H   0  0  0  0  0  0  0  0  0  0  0  0
    4.6513   -2.3212    0.0000 H   0  0  0  0  0  0  0  0  0  0  0  0
    5.8084   -0.2119    0.0000 C   0  0  0  0  0  0  0  0  0  0  0  0
    6.6681    1.1376    0.0000 H   0  0  0  0  0  0  0  0  0  0  0  0
    5.4622    1.3502    0.0000 H   0  0  0  0  0  0  0  0  0  0  0  0
    7.0340   -1.2403    0.0000 C   0  0  0  0  0  0  0  0  0  0  0  0
    8.2597   -2.2687    0.0000 H   0  0  0  0  0  0  0  0  0  0  0  0
    8.5376   -0.6930    0.0000 H   0  0  0  0  0  0  0  0  0  0  0  0
    6.7563   -2.8160    0.0000 H   0  0  0  0  0  0  0  0  0  0  0  0
   -1.6000    0.0000    0.0000 C   0  0  0  0  0  0  0  0  0  0  0  0
   -2.8693    0.9740    0.0000 H   0  0  0  0  0  0  0  0  0  0  0  0
   -1.8088    1.5863    0.0000 H   0  0  0  0  0  0  0  0  0  0  0  0
   -2.3999   -1.3856    0.0000 C   0  0  0  0  0  0  0  0  0  0  0  0
   -1.1306   -2.3596    0.0000 H   0  0  0  0  0  0  0  0  0  0  0  0
   -2.1911   -2.9720    0.0000 H   0  0  0  0  0  0  0  0  0  0  0  0
   -4.0000   -1.3856    0.0000 C   0  0  0  0  0  0  0  0  0  0  0  0
   -5.6000   -1.3856    0.0000 H   0  0  0  0  0  0  0  0  0  0  0  0
   -4.8001   -2.7712    0.0000 H   0  0  0  0  0  0  0  0  0  0  0  0
   -4.8001    0.0000    0.0000 H   0  0  0  0  0  0  0  0  0  0  0  0
   -1.2257    2.6284    0.0000 O   0  0  0  0  0  0  0  0  0  0  0  0
   -0.9479    4.2042    0.0000 H   0  0  0  0  0  0  0  0  0  0  0  0
  1  2  1  0  0  0  0
  1  3  1  0  0  0  0
  1  4  1  0  0  0  0
  4  5  1  0  0  0  0
  4  6  1  0  0  0  0
  6  7  1  0  0  0  0
  6  8  1  0  0  0  0
  6  9  1  0  0  0  0
  9 10  1  0  0  0  0
  9 11  1  0  0  0  0
  9 12  1  0  0  0  0
 12 13  1  0  0  0  0
 12 14  1  0  0  0  0
 12 15  1  0  0  0  0
 15 16  1  0  0  0  0
 15 17  1  0  0  0  0
 15 18  1  0  0  0  0
 18 19  1  0  0  0  0
 18 20  1  0  0  0  0
 18 21  1  0  0  0  0
  4 22  1  0  0  0  0
 22 23  1  0  0  0  0
 22 24  1  0  0  0  0
 22 25  1  0  0  0  0
 25 26  1  0  0  0  0
 25 27  1  0  0  0  0
 25 28  1  0  0  0  0
 28 29  1  0  0  0  0
 28 30  1  0  0  0  0
 28 31  1  0  0  0  0
  1 32  1  0  0  0  0
 32 33  1  0  0  0  0
M  END
> <ChemID>
105207

> <source_casrn>
10042-59-8

> <CAS>
10042-59-8

> <SMILES>
CCCC(CO)CCCCC

> <NAME>
1-Heptanol, 2-propyl-

> <preferred_name>
2-Propyl-1-heptanol

> <iupac>
2-propylheptan-1-ol

> <MPID>
24071

> <dsstox_substance_id>
DTXSID9029302

> <Canonical_QSARr>
CCCC(CO)CCCCC

> <InChI_Code_QSARr>
InChI=1S/C10H22O/c1-3-5-6-8-10(9-11)7-4-2/h10-11H,3-9H2,1-2H3

> <InChI Key_QSARr>
YLQLIQIAXYRMDL-UHFFFAOYSA-N

> <Salt_Solvent>
?

> <BP>
217.5

$$$$
105213
  -INDIGO-08031720192D

 13 12  0  0  0  0  0  0  0  0999 V2000
    2.7713    0.0000    0.0000 C   0  0  0  0  0  0  0  0  0  0  0  0
    4.1569    0.8000    0.0000 H   0  0  0  0  0  0  0  0  0  0  0  0
    2.7713   -1.6000    0.0000 H   0  0  0  0  0  0  0  0  0  0  0  0
    1.3856    0.8000    0.0000 C   0  0  0  0  0  0  0  0  0  0  0  0
    1.3856    2.4000    0.0000 H   0  0  0  0  0  0  0  0  0  0  0  0
    0.0001    0.0000    0.0000 C   0  0  0  0  0  0  0  0  0  0  0  0
    0.6123   -1.4782    0.0000 H   0  0  0  0  0  0  0  0  0  0  0  0
   -0.6123   -1.4782    0.0000 H   0  0  0  0  0  0  0  0  0  0  0  0
   -1.3856    0.8000    0.0000 S   0  0  0  0  0  0  0  0  0  0  0  0
   -2.7713    0.0000    0.0000 C   0  0  0  0  0  0  0  0  0  0  0  0
   -4.1569   -0.8000    0.0000 H   0  0  0  0  0  0  0  0  0  0  0  0
   -4.1569    0.8000    0.0000 H   0  0  0  0  0  0  0  0  0  0  0  0
   -2.7713   -1.6000    0.0000 H   0  0  0  0  0  0  0  0  0  0  0  0
  1  2  1  0  0  0  0
  1  3  1  0  0  0  0
  1  4  2  0  0  0  0
  4  5  1  0  0  0  0
  4  6  1  0  0  0  0
  6  7  1  0  0  0  0
  6  8  1  0  0  0  0
  6  9  1  0  0  0  0
  9 10  1  0  0  0  0
 10 11  1  0  0  0  0
 10 12  1  0  0  0  0
 10 13  1  0  0  0  0
M  END
> <ChemID>
105213

> <source_casrn>
10152-76-8

> <CAS>
10152-76-8

> <SMILES>
CSCC=C

> <NAME>
1-Propene, 3-(methylthio)-

> <preferred_name>
1-Propene, 3-(methylthio)-

> <iupac>
3-methylsulfanylprop-1-ene

> <MPID>
24077

> <dsstox_substance_id>
DTXSID9064976

> <Canonical_QSARr>
CSCC=C

> <InChI_Code_QSARr>
InChI=1S/C4H8S/c1-3-4-5-2/h3H,1,4H2,2H3

> <InChI Key_QSARr>
NVLPQIPTCCLBEU-UHFFFAOYSA-N

> <Salt_Solvent>
?

> <BP>
92.0

$$$$
105217
  -INDIGO-08031720192D

 39 38  0  0  0  0  0  0  0  0999 V2000
    4.1570   -0.8000    0.0000 C   0  0  0  0  0  0  0  0  0  0  0  0
    5.5426   -1.6000    0.0000 H   0  0  0  0  0  0  0  0  0  0  0  0
    5.5426    0.0000    0.0000 H   0  0  0  0  0  0  0  0  0  0  0  0
    4.1570   -2.4000    0.0000 H   0  0  0  0  0  0  0  0  0  0  0  0
    2.7714    0.0000    0.0000 C   0  0  0  0  0  0  0  0  0  0  0  0
    1.9712   -1.3856    0.0000 H   0  0  0  0  0  0  0  0  0  0  0  0
    1.3858    0.8000    0.0000 C   0  0  0  0  0  0  0  0  0  0  0  0
    1.9979    2.2782    0.0000 H   0  0  0  0  0  0  0  0  0  0  0  0
    0.7734    2.2782    0.0000 H   0  0  0  0  0  0  0  0  0  0  0  0
   -0.0001    0.0000    0.0000 C   0  0  0  0  0  0  0  0  0  0  0  0
   -0.6122   -1.4782    0.0000 H   0  0  0  0  0  0  0  0  0  0  0  0
    0.6123   -1.4782    0.0000 H   0  0  0  0  0  0  0  0  0  0  0  0
   -1.3857    0.8000    0.0000 C   0  0  0  0  0  0  0  0  0  0  0  0
   -0.7733    2.2782    0.0000 H   0  0  0  0  0  0  0  0  0  0  0  0
   -1.9978    2.2782    0.0000 H   0  0  0  0  0  0  0  0  0  0  0  0
   -2.7713    0.0000    0.0000 C   0  0  0  0  0  0  0  0  0  0  0  0
   -3.3837   -1.4782    0.0000 H   0  0  0  0  0  0  0  0  0  0  0  0
   -2.1589   -1.4782    0.0000 H   0  0  0  0  0  0  0  0  0  0  0  0
   -4.1569    0.8000    0.0000 C   0  0  0  0  0  0  0  0  0  0  0  0
   -3.5445    2.2782    0.0000 H   0  0  0  0  0  0  0  0  0  0  0  0
   -4.7693    2.2782    0.0000 H   0  0  0  0  0  0  0  0  0  0  0  0
   -5.5425    0.0000    0.0000 C   0  0  0  0  0  0  0  0  0  0  0  0
   -6.1549   -1.4782    0.0000 H   0  0  0  0  0  0  0  0  0  0  0  0
   -4.9304   -1.4782    0.0000 H   0  0  0  0  0  0  0  0  0  0  0  0
   -6.9281    0.8000    0.0000 C   0  0  0  0  0  0  0  0  0  0  0  0
   -6.3160    2.2782    0.0000 H   0  0  0  0  0  0  0  0  0  0  0  0
   -7.5405    2.2782    0.0000 H   0  0  0  0  0  0  0  0  0  0  0  0
   -8.3140    0.0000    0.0000 C   0  0  0  0  0  0  0  0  0  0  0  0
   -8.9261   -1.4782    0.0000 H   0  0  0  0  0  0  0  0  0  0  0  0
   -7.7016   -1.4782    0.0000 H   0  0  0  0  0  0  0  0  0  0  0  0
   -9.6996    0.8000    0.0000 C   0  0  0  0  0  0  0  0  0  0  0  0
   -9.0872    2.2782    0.0000 H   0  0  0  0  0  0  0  0  0  0  0  0
  -10.3117    2.2782    0.0000 H   0  0  0  0  0  0  0  0  0  0  0  0
  -11.0852    0.0000    0.0000 C   0  0  0  0  0  0  0  0  0  0  0  0
  -12.4708   -0.8000    0.0000 H   0  0  0  0  0  0  0  0  0  0  0  0
  -12.4708    0.8000    0.0000 H   0  0  0  0  0  0  0  0  0  0  0  0
  -11.0852   -1.6000    0.0000 H   0  0  0  0  0  0  0  0  0  0  0  0
    3.5712    1.3856    0.0000 O   0  0  0  0  0  0  0  0  0  0  0  0
    5.1712    1.3856    0.0000 H   0  0  0  0  0  0  0  0  0  0  0  0
  1  2  1  0  0  0  0
  1  3  1  0  0  0  0
  1  4  1  0  0  0  0
  1  5  1  0  0  0  0
  5  6  1  0  0  0  0
  5  7  1  0  0  0  0
  7  8  1  0  0  0  0
  7  9  1  0  0  0  0
  7 10  1  0  0  0  0
 10 11  1  0  0  0  0
 10 12  1  0  0  0  0
 10 13  1  0  0  0  0
 13 14  1  0  0  0  0
 13 15  1  0  0  0  0
 13 16  1  0  0  0  0
 16 17  1  0  0  0  0
 16 18  1  0  0  0  0
 16 19  1  0  0  0  0
 19 20  1  0  0  0  0
 19 21  1  0  0  0  0
 19 22  1  0  0  0  0
 22 23  1  0  0  0  0
 22 24  1  0  0  0  0
 22 25  1  0  0  0  0
 25 26  1  0  0  0  0
 25 27  1  0  0  0  0
 25 28  1  0  0  0  0
 28 29  1  0  0  0  0
 28 30  1  0  0  0  0
 28 31  1  0  0  0  0
 31 32  1  0  0  0  0
 31 33  1  0  0  0  0
 31 34  1  0  0  0  0
 34 35  1  0  0  0  0
 34 36  1  0  0  0  0
 34 37  1  0  0  0  0
  5 38  1  0  0  0  0
 38 39  1  0  0  0  0
M  END
> <ChemID>
105217

> <source_casrn>
10203-28-8

> <CAS>
NOCAS_864232

> <SMILES>
CCCCCCCCCCC(C)O

> <NAME>
2-DODECANOL

> <preferred_name>


> <iupac>


> <MPID>
24081

> <dsstox_substance_id>
DTXSID70864232

> <Canonical_QSARr>
CCCCCCCCCCC(C)O

> <InChI_Code_QSARr>
InChI=1S/C12H26O/c1-3-4-5-6-7-8-9-10-11-12(2)13/h12-13H,3-11H2,1-2H3

> <InChI Key_QSARr>
XSWSEQPWKOWORN-UHFFFAOYSA-N

> <Salt_Solvent>
?

> <BP>
252.0

$$$$
105221
  -INDIGO-08031720192D

 25 25  0  0  0  0  0  0  0  0999 V2000
   -2.7712   -0.0000    0.0000 O   0  0  0  0  0  0  0  0  0  0  0  0
   -1.3856    0.8000    0.0000 C   0  0  0  0  0  0  0  0  0  0  0  0
   -1.3856    2.4000    0.0000 O   0  0  0  0  0  0  0  0  0  0  0  0
    0.0001   -0.0000    0.0000 C   0  0  0  0  0  0  0  0  0  0  0  0
    1.3856    0.8000    0.0000 C   0  0  0  0  0  0  0  0  0  0  0  0
    1.3856    2.4000    0.0000 H   0  0  0  0  0  0  0  0  0  0  0  0
    2.7714   -0.0000    0.0000 C   0  0  0  0  0  0  0  0  0  0  0  0
    4.1569    0.8000    0.0000 O   0  0  0  0  0  0  0  0  0  0  0  0
    5.5427   -0.0000    0.0000 C   0  0  0  0  0  0  0  0  0  0  0  0
    6.9282    0.8000    0.0000 H   0  0  0  0  0  0  0  0  0  0  0  0
    6.9282   -0.8000    0.0000 H   0  0  0  0  0  0  0  0  0  0  0  0
    5.5427    1.6000    0.0000 H   0  0  0  0  0  0  0  0  0  0  0  0
    2.7714   -1.6000    0.0000 C   0  0  0  0  0  0  0  0  0  0  0  0
    4.1569   -2.4000    0.0000 H   0  0  0  0  0  0  0  0  0  0  0  0
    1.3856   -2.4000    0.0000 C   0  0  0  0  0  0  0  0  0  0  0  0
    1.3856   -4.0000    0.0000 H   0  0  0  0  0  0  0  0  0  0  0  0
    0.0001   -1.6000    0.0000 C   0  0  0  0  0  0  0  0  0  0  0  0
   -1.3856   -2.4000    0.0000 H   0  0  0  0  0  0  0  0  0  0  0  0
   -4.1569    0.8000    0.0000 C   0  0  0  0  0  0  0  0  0  0  0  0
   -3.5446    2.2782    0.0000 H   0  0  0  0  0  0  0  0  0  0  0  0
   -4.7692    2.2782    0.0000 H   0  0  0  0  0  0  0  0  0  0  0  0
   -5.5427   -0.0000    0.0000 C   0  0  0  0  0  0  0  0  0  0  0  0
   -6.9282   -0.8000    0.0000 H   0  0  0  0  0  0  0  0  0  0  0  0
   -6.9282    0.8000    0.0000 H   0  0  0  0  0  0  0  0  0  0  0  0
   -5.5427   -1.6000    0.0000 H   0  0  0  0  0  0  0  0  0  0  0  0
  1  2  1  0  0  0  0
  2  3  2  0  0  0  0
  2  4  1  0  0  0  0
  4  5  1  0  0  0  0
  5  6  1  0  0  0  0
  5  7  2  0  0  0  0
  7  8  1  0  0  0  0
  8  9  1  0  0  0  0
  9 10  1  0  0  0  0
  9 11  1  0  0  0  0
  9 12  1  0  0  0  0
  7 13  1  0  0  0  0
 13 14  1  0  0  0  0
 13 15  2  0  0  0  0
 15 16  1  0  0  0  0
 15 17  1  0  0  0  0
 17  4  2  0  0  0  0
 17 18  1  0  0  0  0
  1 19  1  0  0  0  0
 19 20  1  0  0  0  0
 19 21  1  0  0  0  0
 19 22  1  0  0  0  0
 22 23  1  0  0  0  0
 22 24  1  0  0  0  0
 22 25  1  0  0  0  0
M  END
> <ChemID>
105221

> <source_casrn>
10259-22-0

> <CAS>
10259-22-0

> <SMILES>
COc1cc(ccc1)C(=O)OCC

> <NAME>
BENZOIC ACID, 3-METHOXY-, ETHYL ESTER

> <preferred_name>
Ethyl m-anisate

> <iupac>
ethyl 3-methoxybenzoate

> <MPID>
24085

> <dsstox_substance_id>
DTXSID40145343

> <Canonical_QSARr>
COc1cc(ccc1)C(=O)OCC

> <InChI_Code_QSARr>
InChI=1S/C10H12O3/c1-3-13-10(11)8-5-4-6-9(7-8)12-2/h4-7H,3H2,1-2H3

> <InChI Key_QSARr>
GSQLMBQLTPEPHD-UHFFFAOYSA-N

> <Salt_Solvent>
?

> <BP>
260.5

$$$$
105227
  -INDIGO-08031720192D

 28 29  0  0  0  0  0  0  0  0999 V2000
   -2.7714    1.6000    0.0000 O   0  0  0  0  0  0  0  0  0  0  0  0
   -1.3857    2.4000    0.0000 C   0  0  0  0  0  0  0  0  0  0  0  0
   -2.4142    3.6257    0.0000 H   0  0  0  0  0  0  0  0  0  0  0  0
   -0.3572    3.6257    0.0000 H   0  0  0  0  0  0  0  0  0  0  0  0
    0.0000    1.6000    0.0000 C   0  0  0  0  0  0  0  0  0  0  0  0
    0.5473    3.1035    0.0000 H   0  0  0  0  0  0  0  0  0  0  0  0
    1.5756    1.3221    0.0000 H   0  0  0  0  0  0  0  0  0  0  0  0
    0.0000    0.0000    0.0000 N   0  0  0  0  0  0  0  0  0  0  0  0
    1.3857   -0.8000    0.0000 C   0  0  0  0  0  0  0  0  0  0  0  0
    0.7734   -2.2782    0.0000 H   0  0  0  0  0  0  0  0  0  0  0  0
    1.9980   -2.2782    0.0000 H   0  0  0  0  0  0  0  0  0  0  0  0
    2.7713    0.0000    0.0000 C   0  0  0  0  0  0  0  0  0  0  0  0
    2.7713    1.6000    0.0000 C   0  0  0  0  0  0  0  0  0  0  0  0
    1.3857    2.4000    0.0000 H   0  0  0  0  0  0  0  0  0  0  0  0
    4.1569    2.4000    0.0000 C   0  0  0  0  0  0  0  0  0  0  0  0
    4.1569    4.0000    0.0000 H   0  0  0  0  0  0  0  0  0  0  0  0
    5.5425    1.6000    0.0000 C   0  0  0  0  0  0  0  0  0  0  0  0
    6.9282    2.4000    0.0000 H   0  0  0  0  0  0  0  0  0  0  0  0
    5.5425    0.0000    0.0000 C   0  0  0  0  0  0  0  0  0  0  0  0
    6.9282   -0.8000    0.0000 H   0  0  0  0  0  0  0  0  0  0  0  0
    4.1569   -0.8000    0.0000 C   0  0  0  0  0  0  0  0  0  0  0  0
    4.1569   -2.4000    0.0000 H   0  0  0  0  0  0  0  0  0  0  0  0
   -1.3857   -0.8000    0.0000 C   0  0  0  0  0  0  0  0  0  0  0  0
   -0.3572   -2.0257    0.0000 H   0  0  0  0  0  0  0  0  0  0  0  0
   -2.4142   -2.0257    0.0000 H   0  0  0  0  0  0  0  0  0  0  0  0
   -2.7714    0.0000    0.0000 C   0  0  0  0  0  0  0  0  0  0  0  0
   -3.3185   -1.5035    0.0000 H   0  0  0  0  0  0  0  0  0  0  0  0
   -4.3470    0.2779    0.0000 H   0  0  0  0  0  0  0  0  0  0  0  0
  1  2  1  0  0  0  0
  2  3  1  0  0  0  0
  2  4  1  0  0  0  0
  2  5  1  0  0  0  0
  5  6  1  0  0  0  0
  5  7  1  0  0  0  0
  5  8  1  0  0  0  0
  8  9  1  0  0  0  0
  9 10  1  0  0  0  0
  9 11  1  0  0  0  0
  9 12  1  0  0  0  0
 12 13  1  0  0  0  0
 13 14  1  0  0  0  0
 13 15  2  0  0  0  0
 15 16  1  0  0  0  0
 15 17  1  0  0  0  0
 17 18  1  0  0  0  0
 17 19  2  0  0  0  0
 19 20  1  0  0  0  0
 19 21  1  0  0  0  0
 21 12  2  0  0  0  0
 21 22  1  0  0  0  0
  8 23  1  0  0  0  0
 23 24  1  0  0  0  0
 23 25  1  0  0  0  0
 23 26  1  0  0  0  0
 26  1  1  0  0  0  0
 26 27  1  0  0  0  0
 26 28  1  0  0  0  0
M  END
> <ChemID>
105227

> <source_casrn>
10316-00-4

> <CAS>
10316-00-4

> <SMILES>
C(c1ccccc1)N1CCOCC1

> <NAME>
4-BENZYLMORPHOLINE

> <preferred_name>
4-benzylmorpholine

> <iupac>
C11H15NO

> <MPID>
24089

> <dsstox_substance_id>
DTXSID90290317

> <Canonical_QSARr>
C(c1ccccc1)N1CCOCC1

> <InChI_Code_QSARr>
InChI=1S/C11H15NO/c1-2-4-11(5-3-1)10-12-6-8-13-9-7-12/h1-5H,6-10H2

> <InChI Key_QSARr>
GVWBJJLCTWNTRU-UHFFFAOYSA-N

> <Salt_Solvent>
?

> <BP>
260.5

$$$$
105231
  -INDIGO-08031720192D

 12 11  0  0  0  0  0  0  0  0999 V2000
    2.7713    0.0000    0.0000 C   0  0  0  0  0  0  0  0  0  0  0  0
    4.1569   -0.8000    0.0000 C   0  0  0  0  0  0  0  0  0  0  0  0
    5.5426   -1.6000    0.0000 H   0  0  0  0  0  0  0  0  0  0  0  0
    1.3857    0.8000    0.0000 C   0  0  0  0  0  0  0  0  0  0  0  0
    1.3857    2.4000    0.0000 H   0  0  0  0  0  0  0  0  0  0  0  0
   -0.0001    0.0000    0.0000 C   0  0  0  0  0  0  0  0  0  0  0  0
   -0.0001   -1.6000    0.0000 H   0  0  0  0  0  0  0  0  0  0  0  0
   -1.3857    0.8000    0.0000 C   0  0  0  0  0  0  0  0  0  0  0  0
   -1.3857    2.4000    0.0000 H   0  0  0  0  0  0  0  0  0  0  0  0
   -2.7713    0.0000    0.0000 C   0  0  0  0  0  0  0  0  0  0  0  0
   -4.1569    0.8000    0.0000 H   0  0  0  0  0  0  0  0  0  0  0  0
   -2.7713   -1.6000    0.0000 H   0  0  0  0  0  0  0  0  0  0  0  0
  1  2  3  0  0  0  0
  2  3  1  0  0  0  0
  1  4  1  0  0  0  0
  4  5  1  0  0  0  0
  4  6  2  0  0  0  0
  6  7  1  0  0  0  0
  6  8  1  0  0  0  0
  8  9  1  0  0  0  0
  8 10  2  0  0  0  0
 10 11  1  0  0  0  0
 10 12  1  0  0  0  0
M  END
> <ChemID>
105231

> <source_casrn>
10420-90-3

> <CAS>
10420-90-3

> <SMILES>
C=CC=CC#C

> <NAME>
1,3-HEXADIEN-5-YNE

> <preferred_name>
1,3-Hexadien-5-yne

> <iupac>


> <MPID>
24093

> <dsstox_substance_id>
DTXSID0074689

> <Canonical_QSARr>
C=CC=CC#C

> <InChI_Code_QSARr>
InChI=1S/C6H6/c1-3-5-6-4-2/h1,4-6H,2H2/b6-5+

> <InChI Key_QSARr>
OGWJYLKDZYZYBA-AATRIKPKSA-N

> <Salt_Solvent>
?

> <BP>
83.5

$$$$
105236
  -INDIGO-08031720192D

 11 10  0  0  0  0  0  0  0  0999 V2000
   -2.7713   -1.6000    0.0000 O   0  0  0  0  0  0  0  0  0  0  0  0
   -2.7713    0.0000    0.0000 C   0  0  0  0  0  0  0  0  0  0  0  0
   -1.3856    0.8000    0.0000 C   0  0  0  0  0  0  0  0  0  0  0  0
   -1.3856    2.4000    0.0000 H   0  0  0  0  0  0  0  0  0  0  0  0
    0.0000    0.0000    0.0000 C   0  0  0  0  0  0  0  0  0  0  0  0
    0.0000   -1.6000    0.0000 H   0  0  0  0  0  0  0  0  0  0  0  0
    1.3856    0.8000    0.0000 C   0  0  0  0  0  0  0  0  0  0  0  0
    2.7713    1.6000    0.0000 H   0  0  0  0  0  0  0  0  0  0  0  0
    2.7713    0.0000    0.0000 H   0  0  0  0  0  0  0  0  0  0  0  0
    1.3856    2.4000    0.0000 H   0  0  0  0  0  0  0  0  0  0  0  0
   -4.1569    0.8000    0.0000 Cl  0  0  0  0  0  0  0  0  0  0  0  0
  1  2  2  0  0  0  0
  2  3  1  0  0  0  0
  3  4  1  0  0  0  0
  3  5  2  0  0  0  0
  5  6  1  0  0  0  0
  5  7  1  0  0  0  0
  7  8  1  0  0  0  0
  7  9  1  0  0  0  0
  7 10  1  0  0  0  0
  2 11  1  0  0  0  0
M  END
> <ChemID>
105236

> <source_casrn>
10487-71-5

> <CAS>
10487-71-5

> <SMILES>
CC=CC(=O)Cl

> <NAME>
2-Butenoyl chloride

> <preferred_name>
2-Butenoyl chloride

> <iupac>


> <MPID>
24098

> <dsstox_substance_id>
DTXSID2065096

> <Canonical_QSARr>
CC=CC(=O)Cl

> <InChI_Code_QSARr>
InChI=1S/C4H5ClO/c1-2-3-4(5)6/h2-3H,1H3/b3-2+

> <InChI Key_QSARr>
RJUIDDKTATZJFE-NSCUHMNNSA-N

> <Salt_Solvent>
?

> <BP>
124.5

$$$$
105242
  -INDIGO-08031720192D

 25 25  0  0  0  0  0  0  0  0999 V2000
   -2.7712    0.0001    0.0000 C   0  0  0  0  0  0  0  0  0  0  0  0
   -2.7712   -1.6000    0.0000 C   0  0  0  0  0  0  0  0  0  0  0  0
   -1.3856   -2.4000    0.0000 H   0  0  0  0  0  0  0  0  0  0  0  0
   -4.1569   -2.4000    0.0000 C   0  0  0  0  0  0  0  0  0  0  0  0
   -4.1569   -4.0000    0.0000 H   0  0  0  0  0  0  0  0  0  0  0  0
   -5.5425   -1.6000    0.0000 C   0  0  0  0  0  0  0  0  0  0  0  0
   -6.9282   -2.4000    0.0000 H   0  0  0  0  0  0  0  0  0  0  0  0
   -5.5425    0.0001    0.0000 C   0  0  0  0  0  0  0  0  0  0  0  0
   -6.9282    0.8000    0.0000 H   0  0  0  0  0  0  0  0  0  0  0  0
   -4.1569    0.8000    0.0000 C   0  0  0  0  0  0  0  0  0  0  0  0
   -4.1569    2.4000    0.0000 H   0  0  0  0  0  0  0  0  0  0  0  0
   -1.3856    0.8000    0.0000 O   0  0  0  0  0  0  0  0  0  0  0  0
   -0.0001    0.0001    0.0000 C   0  0  0  0  0  0  0  0  0  0  0  0
   -0.8000   -1.3856    0.0000 H   0  0  0  0  0  0  0  0  0  0  0  0
    1.3856   -0.8000    0.0000 C   0  0  0  0  0  0  0  0  0  0  0  0
    0.7733   -2.2782    0.0000 H   0  0  0  0  0  0  0  0  0  0  0  0
    1.9979   -2.2782    0.0000 H   0  0  0  0  0  0  0  0  0  0  0  0
    2.7713    0.0001    0.0000 C   0  0  0  0  0  0  0  0  0  0  0  0
    4.1569   -0.8000    0.0000 H   0  0  0  0  0  0  0  0  0  0  0  0
    4.1569    0.8000    0.0000 H   0  0  0  0  0  0  0  0  0  0  0  0
    2.7713   -1.6000    0.0000 H   0  0  0  0  0  0  0  0  0  0  0  0
    0.8000    1.3856    0.0000 C   0  0  0  0  0  0  0  0  0  0  0  0
    1.6001    2.7713    0.0000 H   0  0  0  0  0  0  0  0  0  0  0  0
   -0.0001    2.7713    0.0000 H   0  0  0  0  0  0  0  0  0  0  0  0
    2.4000    1.3856    0.0000 H   0  0  0  0  0  0  0  0  0  0  0  0
  1  2  1  0  0  0  0
  2  3  1  0  0  0  0
  2  4  2  0  0  0  0
  4  5  1  0  0  0  0
  4  6  1  0  0  0  0
  6  7  1  0  0  0  0
  6  8  2  0  0  0  0
  8  9  1  0  0  0  0
  8 10  1  0  0  0  0
 10  1  2  0  0  0  0
 10 11  1  0  0  0  0
  1 12  1  0  0  0  0
 12 13  1  0  0  0  0
 13 14  1  0  0  0  0
 13 15  1  0  0  0  0
 15 16  1  0  0  0  0
 15 17  1  0  0  0  0
 15 18  1  0  0  0  0
 18 19  1  0  0  0  0
 18 20  1  0  0  0  0
 18 21  1  0  0  0  0
 13 22  1  0  0  0  0
 22 23  1  0  0  0  0
 22 24  1  0  0  0  0
 22 25  1  0  0  0  0
M  END
> <ChemID>
105242

> <source_casrn>
10574-17-1

> <CAS>
NOCAS_870421

> <SMILES>
CCC(C)Oc1ccccc1

> <NAME>
BENZENE, (1-METHYLPROPOXY)-

> <preferred_name>


> <iupac>


> <MPID>
24104

> <dsstox_substance_id>
DTXSID40870421

> <Canonical_QSARr>
CCC(C)Oc1ccccc1

> <InChI_Code_QSARr>
InChI=1S/C10H14O/c1-3-9(2)11-10-7-5-4-6-8-10/h4-9H,3H2,1-2H3

> <InChI Key_QSARr>
VJQIPKNMASGCOC-UHFFFAOYSA-N

> <Salt_Solvent>
?

> <BP>
194.5

$$$$
105246
  -INDIGO-08031720192D

 14 13  0  0  0  0  0  0  0  0999 V2000
    2.7713    0.0000    0.0000 C   0  0  0  0  0  0  0  0  0  0  0  0
    4.1569   -0.8000    0.0000 H   0  0  0  0  0  0  0  0  0  0  0  0
    4.1569    0.8000    0.0000 H   0  0  0  0  0  0  0  0  0  0  0  0
    2.7713   -1.6000    0.0000 H   0  0  0  0  0  0  0  0  0  0  0  0
    1.3856    0.8000    0.0000 N   0  0  0  0  0  0  0  0  0  0  0  0
    0.0000    0.0000    0.0000 C   0  0  0  0  0  0  0  0  0  0  0  0
    0.6123   -1.4782    0.0000 H   0  0  0  0  0  0  0  0  0  0  0  0
   -0.6123   -1.4782    0.0000 H   0  0  0  0  0  0  0  0  0  0  0  0
   -1.3856    0.8000    0.0000 C   0  0  0  0  0  0  0  0  0  0  0  0
   -2.7713    1.6000    0.0000 H   0  0  0  0  0  0  0  0  0  0  0  0
   -2.7713    0.0000    0.0000 H   0  0  0  0  0  0  0  0  0  0  0  0
   -1.3856    2.4000    0.0000 H   0  0  0  0  0  0  0  0  0  0  0  0
    1.3856    2.4000    0.0000 N   0  0  0  0  0  0  0  0  0  0  0  0
    2.7713    3.2000    0.0000 O   0  0  0  0  0  0  0  0  0  0  0  0
  1  2  1  0  0  0  0
  1  3  1  0  0  0  0
  1  4  1  0  0  0  0
  1  5  1  0  0  0  0
  5  6  1  0  0  0  0
  6  7  1  0  0  0  0
  6  8  1  0  0  0  0
  6  9  1  0  0  0  0
  9 10  1  0  0  0  0
  9 11  1  0  0  0  0
  9 12  1  0  0  0  0
  5 13  1  0  0  0  0
 13 14  2  0  0  0  0
M  END
> <ChemID>
105246

> <source_casrn>
10595-95-6

> <CAS>
10595-95-6

> <SMILES>
CCN(C)N=O

> <NAME>
N-METHYL-N-NITROSOETHAMINE

> <preferred_name>
N-Nitroso-N-methylethylamine

> <iupac>
N-methyl-N-nitrosoethanamine

> <MPID>
24108

> <dsstox_substance_id>
DTXSID6021036

> <Canonical_QSARr>
CCN(C)N=O

> <InChI_Code_QSARr>
InChI=1S/C3H8N2O/c1-3-5(2)4-6/h3H2,1-2H3

> <InChI Key_QSARr>
RTDCJKARQCRONF-UHFFFAOYSA-N

> <Salt_Solvent>
?

> <BP>
170.0

$$$$
105255
  -INDIGO-08031720192D

 25 24  0  0  0  0  0  0  0  0999 V2000
   -1.3857    0.8000    0.0000 C   0  0  0  0  0  0  0  0  0  0  0  0
   -0.0000    0.0000    0.0000 C   0  0  0  0  0  0  0  0  0  0  0  0
   -0.7999   -1.3856    0.0000 H   0  0  0  0  0  0  0  0  0  0  0  0
    1.3856   -0.8000    0.0000 C   0  0  0  0  0  0  0  0  0  0  0  0
    2.7713   -1.6000    0.0000 H   0  0  0  0  0  0  0  0  0  0  0  0
    1.3856   -2.4000    0.0000 H   0  0  0  0  0  0  0  0  0  0  0  0
    2.7713    0.0000    0.0000 H   0  0  0  0  0  0  0  0  0  0  0  0
    0.8000    1.3856    0.0000 C   0  0  0  0  0  0  0  0  0  0  0  0
    1.5999    2.7713    0.0000 H   0  0  0  0  0  0  0  0  0  0  0  0
   -0.0000    2.7713    0.0000 H   0  0  0  0  0  0  0  0  0  0  0  0
    2.4000    1.3856    0.0000 H   0  0  0  0  0  0  0  0  0  0  0  0
   -2.7712    0.0000    0.0000 C   0  0  0  0  0  0  0  0  0  0  0  0
   -3.3835   -1.4782    0.0000 H   0  0  0  0  0  0  0  0  0  0  0  0
   -2.1590   -1.4782    0.0000 H   0  0  0  0  0  0  0  0  0  0  0  0
   -4.1569    0.8000    0.0000 C   0  0  0  0  0  0  0  0  0  0  0  0
   -3.5447    2.2782    0.0000 H   0  0  0  0  0  0  0  0  0  0  0  0
   -4.7692    2.2782    0.0000 H   0  0  0  0  0  0  0  0  0  0  0  0
   -5.5425    0.0000    0.0000 C   0  0  0  0  0  0  0  0  0  0  0  0
   -6.1548   -1.4782    0.0000 H   0  0  0  0  0  0  0  0  0  0  0  0
   -4.9302   -1.4782    0.0000 H   0  0  0  0  0  0  0  0  0  0  0  0
   -6.9282    0.8000    0.0000 C   0  0  0  0  0  0  0  0  0  0  0  0
   -8.3138    1.6000    0.0000 H   0  0  0  0  0  0  0  0  0  0  0  0
   -8.3138    0.0000    0.0000 H   0  0  0  0  0  0  0  0  0  0  0  0
   -6.9282    2.4000    0.0000 H   0  0  0  0  0  0  0  0  0  0  0  0
   -1.3857    2.4000    0.0000 O   0  0  0  0  0  0  0  0  0  0  0  0
  1  2  1  0  0  0  0
  2  3  1  0  0  0  0
  2  4  1  0  0  0  0
  4  5  1  0  0  0  0
  4  6  1  0  0  0  0
  4  7  1  0  0  0  0
  2  8  1  0  0  0  0
  8  9  1  0  0  0  0
  8 10  1  0  0  0  0
  8 11  1  0  0  0  0
  1 12  1  0  0  0  0
 12 13  1  0  0  0  0
 12 14  1  0  0  0  0
 12 15  1  0  0  0  0
 15 16  1  0  0  0  0
 15 17  1  0  0  0  0
 15 18  1  0  0  0  0
 18 19  1  0  0  0  0
 18 20  1  0  0  0  0
 18 21  1  0  0  0  0
 21 22  1  0  0  0  0
 21 23  1  0  0  0  0
 21 24  1  0  0  0  0
  1 25  2  0  0  0  0
M  END
> <ChemID>
105255

> <source_casrn>
13019-20-0

> <CAS>
13019-20-0

> <SMILES>
CCCCC(=O)C(C)C

> <NAME>
3-HEPTANONE, 2-METHYL-

> <preferred_name>
3-Heptanone, 2-methyl-

> <iupac>
2-Methylheptan-3-one

> <MPID>
24112

> <dsstox_substance_id>
DTXSID3073395

> <Canonical_QSARr>
CCCCC(=O)C(C)C

> <InChI_Code_QSARr>
InChI=1S/C8H16O/c1-4-5-6-8(9)7(2)3/h7H,4-6H2,1-3H3

> <InChI Key_QSARr>
XYYMFUCZDNNGFS-UHFFFAOYSA-N

> <Salt_Solvent>
?

> <BP>
158.0

$$$$
105260
  -INDIGO-08031720192D

  9  8  0  0  0  0  0  0  0  0999 V2000
    1.3856   -0.8000    0.0000 O   0  0  0  0  0  0  0  0  0  0  0  0
    2.7713    0.0000    0.0000 C   0  0  0  0  0  0  0  0  0  0  0  0
    4.1569    0.8000    0.0000 H   0  0  0  0  0  0  0  0  0  0  0  0
    4.1569   -0.8000    0.0000 H   0  0  0  0  0  0  0  0  0  0  0  0
    2.7713    1.6000    0.0000 Br  0  0  0  0  0  0  0  0  0  0  0  0
    0.0000    0.0000    0.0000 C   0  0  0  0  0  0  0  0  0  0  0  0
   -1.3856    0.8000    0.0000 H   0  0  0  0  0  0  0  0  0  0  0  0
    0.0000    1.6000    0.0000 H   0  0  0  0  0  0  0  0  0  0  0  0
   -1.3856   -0.8000    0.0000 H   0  0  0  0  0  0  0  0  0  0  0  0
  1  2  1  0  0  0  0
  2  3  1  0  0  0  0
  2  4  1  0  0  0  0
  2  5  1  0  0  0  0
  1  6  1  0  0  0  0
  6  7  1  0  0  0  0
  6  8  1  0  0  0  0
  6  9  1  0  0  0  0
M  END
> <ChemID>
105260

> <source_casrn>
13057-17-5

> <CAS>
13057-17-5

> <SMILES>
COCBr

> <NAME>
Methane, bromomethoxy-

> <preferred_name>
Methane, bromomethoxy-

> <iupac>
bromo-methoxymethane

> <MPID>
24117

> <dsstox_substance_id>
DTXSID6065341

> <Canonical_QSARr>
COCBr

> <InChI_Code_QSARr>
InChI=1S/C2H5BrO/c1-4-2-3/h2H2,1H3

> <InChI Key_QSARr>
JAMFGQBENKSWOF-UHFFFAOYSA-N

> <Salt_Solvent>
?

> <BP>
87.0

$$$$
105264
  -INDIGO-08031720192D

 15 15  0  0  0  0  0  0  0  0999 V2000
    2.0944    1.5217    0.0000 O   0  0  0  0  0  0  0  0  0  0  0  0
    2.5889   -0.0000    0.0000 C   0  0  0  0  0  0  0  0  0  0  0  0
    4.1105   -0.4944    0.0000 H   0  0  0  0  0  0  0  0  0  0  0  0
    1.2944   -0.9405    0.0000 C   0  0  0  0  0  0  0  0  0  0  0  0
    1.2944   -2.5405    0.0000 H   0  0  0  0  0  0  0  0  0  0  0  0
    0.0000   -0.0000    0.0000 C   0  0  0  0  0  0  0  0  0  0  0  0
   -1.5216   -0.4944    0.0000 C   0  0  0  0  0  0  0  0  0  0  0  0
   -1.8543   -2.0594    0.0000 O   0  0  0  0  0  0  0  0  0  0  0  0
   -2.7108    0.5762    0.0000 O   0  0  0  0  0  0  0  0  0  0  0  0
   -4.2324    0.0817    0.0000 C   0  0  0  0  0  0  0  0  0  0  0  0
   -5.7541   -0.4127    0.0000 H   0  0  0  0  0  0  0  0  0  0  0  0
   -5.4214    1.1524    0.0000 H   0  0  0  0  0  0  0  0  0  0  0  0
   -4.5651   -1.4833    0.0000 H   0  0  0  0  0  0  0  0  0  0  0  0
    0.4945    1.5217    0.0000 C   0  0  0  0  0  0  0  0  0  0  0  0
   -0.4460    2.8161    0.0000 H   0  0  0  0  0  0  0  0  0  0  0  0
  1  2  1  0  0  0  0
  2  3  1  0  0  0  0
  2  4  2  0  0  0  0
  4  5  1  0  0  0  0
  4  6  1  0  0  0  0
  6  7  1  0  0  0  0
  7  8  2  0  0  0  0
  7  9  1  0  0  0  0
  9 10  1  0  0  0  0
 10 11  1  0  0  0  0
 10 12  1  0  0  0  0
 10 13  1  0  0  0  0
  6 14  2  0  0  0  0
 14  1  1  0  0  0  0
 14 15  1  0  0  0  0
M  END
> <ChemID>
105264

> <source_casrn>
13129-23-2

> <CAS>
NOCAS_871954

> <SMILES>
COC(=O)c1cocc1

> <NAME>
3-FURANCARBOXYLIC ACID, METHYL ESTER

> <preferred_name>


> <iupac>


> <MPID>
24121

> <dsstox_substance_id>
DTXSID00871954

> <Canonical_QSARr>
COC(=O)c1cocc1

> <InChI_Code_QSARr>
InChI=1S/C6H6O3/c1-8-6(7)5-2-3-9-4-5/h2-4H,1H3

> <InChI Key_QSARr>
ZKHQSQYLKSSYIP-UHFFFAOYSA-N

> <Salt_Solvent>
?

> <BP>
160.0

$$$$
105268
  -INDIGO-08031720192D

  9  8  0  0  0  0  0  0  0  0999 V2000
    2.7713    0.0000    0.0000 C   0  0  0  0  0  0  0  0  0  0  0  0
    4.1569   -0.8000    0.0000 Br  0  0  0  0  0  0  0  0  0  0  0  0
    2.7713    1.6000    0.0000 Br  0  0  0  0  0  0  0  0  0  0  0  0
    1.3857   -0.8000    0.0000 C   0  0  0  0  0  0  0  0  0  0  0  0
    1.3857   -2.4000    0.0000 H   0  0  0  0  0  0  0  0  0  0  0  0
    0.0000    0.0000    0.0000 C   0  0  0  0  0  0  0  0  0  0  0  0
   -1.3856    0.8000    0.0000 H   0  0  0  0  0  0  0  0  0  0  0  0
    0.0000    1.6000    0.0000 H   0  0  0  0  0  0  0  0  0  0  0  0
   -1.3856   -0.8000    0.0000 H   0  0  0  0  0  0  0  0  0  0  0  0
  1  2  1  0  0  0  0
  1  3  1  0  0  0  0
  1  4  2  0  0  0  0
  4  5  1  0  0  0  0
  4  6  1  0  0  0  0
  6  7  1  0  0  0  0
  6  8  1  0  0  0  0
  6  9  1  0  0  0  0
M  END
> <ChemID>
105268

> <source_casrn>
13195-80-7

> <CAS>
13195-80-7

> <SMILES>
CC=C(Br)Br

> <NAME>
Propene, 1,1-dibromo-

> <preferred_name>
1-Propene, 1,1-dibromo-

> <iupac>
1,1-dibromoprop-1-ene

> <MPID>
24125

> <dsstox_substance_id>
DTXSID8065377

> <Canonical_QSARr>
CC=C(Br)Br

> <InChI_Code_QSARr>
InChI=1S/C3H4Br2/c1-2-3(4)5/h2H,1H3

> <InChI Key_QSARr>
HTEJLXYOJZOXKM-UHFFFAOYSA-N

> <Salt_Solvent>
?

> <BP>
125.0

$$$$
105274
  -INDIGO-08031720192D

 17 18  0  0  0  0  0  0  0  0999 V2000
   -1.5650    0.3327    0.0000 N   0  0  0  0  0  0  0  0  0  0  0  0
   -1.7323    1.9239    0.0000 N   0  0  0  0  0  0  0  0  0  0  0  0
   -0.2706    2.5746    0.0000 N   0  0  0  0  0  0  0  0  0  0  0  0
    0.7999    1.3856    0.0000 C   0  0  0  0  0  0  0  0  0  0  0  0
    0.0000   -0.0000    0.0000 C   0  0  0  0  0  0  0  0  0  0  0  0
    0.7999   -1.3856    0.0000 C   0  0  0  0  0  0  0  0  0  0  0  0
    0.0000   -2.7713    0.0000 H   0  0  0  0  0  0  0  0  0  0  0  0
    2.4000   -1.3856    0.0000 C   0  0  0  0  0  0  0  0  0  0  0  0
    3.2001   -2.7713    0.0000 H   0  0  0  0  0  0  0  0  0  0  0  0
    3.2001   -0.0000    0.0000 C   0  0  0  0  0  0  0  0  0  0  0  0
    4.8000   -0.0000    0.0000 H   0  0  0  0  0  0  0  0  0  0  0  0
    2.4000    1.3856    0.0000 C   0  0  0  0  0  0  0  0  0  0  0  0
    3.2001    2.7713    0.0000 H   0  0  0  0  0  0  0  0  0  0  0  0
   -2.7541   -0.7380    0.0000 C   0  0  0  0  0  0  0  0  0  0  0  0
   -3.9431   -1.8086    0.0000 H   0  0  0  0  0  0  0  0  0  0  0  0
   -4.2758   -0.2435    0.0000 H   0  0  0  0  0  0  0  0  0  0  0  0
   -2.4214   -2.3030    0.0000 H   0  0  0  0  0  0  0  0  0  0  0  0
  1  2  1  0  0  0  0
  2  3  2  0  0  0  0
  3  4  1  0  0  0  0
  4  5  1  0  0  0  0
  5  1  1  0  0  0  0
  5  6  2  0  0  0  0
  6  7  1  0  0  0  0
  6  8  1  0  0  0  0
  8  9  1  0  0  0  0
  8 10  2  0  0  0  0
 10 11  1  0  0  0  0
 10 12  1  0  0  0  0
 12  4  2  0  0  0  0
 12 13  1  0  0  0  0
  1 14  1  0  0  0  0
 14 15  1  0  0  0  0
 14 16  1  0  0  0  0
 14 17  1  0  0  0  0
M  END
> <ChemID>
105274

> <source_casrn>
13351-73-0

> <CAS>
13351-73-0

> <SMILES>
C[n]1[n][n]c2ccccc12

> <NAME>
1-METHYLBENZOTRIAZOLE

> <preferred_name>
1H-Benzotriazole, 1-methyl-

> <iupac>
1-Methylbenzotriazole

> <MPID>
24131

> <dsstox_substance_id>
DTXSID40158150

> <Canonical_QSARr>
C[n]1[n][n]c2ccccc12

> <InChI_Code_QSARr>
InChI=1S/C7H7N3/c1-10-7-5-3-2-4-6(7)8-9-10/h2-5H,1H3

> <InChI Key_QSARr>
HXQHRUJXQJEGER-UHFFFAOYSA-N

> <Salt_Solvent>
?

> <BP>
270.5

$$$$
105280
  -INDIGO-08031720192D

 15 14  0  0  0  0  0  0  0  0999 V2000
    0.8000   -1.3856    0.0000 C   0  0  0  0  0  0  0  0  0  0  0  0
    1.6000   -2.7713    0.0000 H   0  0  0  0  0  0  0  0  0  0  0  0
   -0.0000   -2.7713    0.0000 H   0  0  0  0  0  0  0  0  0  0  0  0
   -0.0000    0.0000    0.0000 C   0  0  0  0  0  0  0  0  0  0  0  0
   -1.6000    0.0000    0.0000 C   0  0  0  0  0  0  0  0  0  0  0  0
   -2.4000   -1.3856    0.0000 H   0  0  0  0  0  0  0  0  0  0  0  0
   -2.4000    1.3856    0.0000 C   0  0  0  0  0  0  0  0  0  0  0  0
   -3.2000    2.7713    0.0000 H   0  0  0  0  0  0  0  0  0  0  0  0
   -4.0000    1.3856    0.0000 H   0  0  0  0  0  0  0  0  0  0  0  0
   -1.6000    2.7713    0.0000 H   0  0  0  0  0  0  0  0  0  0  0  0
    0.8000    1.3856    0.0000 C   0  0  0  0  0  0  0  0  0  0  0  0
    1.6000    2.7713    0.0000 H   0  0  0  0  0  0  0  0  0  0  0  0
    2.4000    1.3856    0.0000 H   0  0  0  0  0  0  0  0  0  0  0  0
   -0.0000    2.7713    0.0000 H   0  0  0  0  0  0  0  0  0  0  0  0
    2.4000   -1.3856    0.0000 Cl  0  0  0  0  0  0  0  0  0  0  0  0
  1  2  1  0  0  0  0
  1  3  1  0  0  0  0
  1  4  1  0  0  0  0
  4  5  2  0  0  0  0
  5  6  1  0  0  0  0
  5  7  1  0  0  0  0
  7  8  1  0  0  0  0
  7  9  1  0  0  0  0
  7 10  1  0  0  0  0
  4 11  1  0  0  0  0
 11 12  1  0  0  0  0
 11 13  1  0  0  0  0
 11 14  1  0  0  0  0
  1 15  1  0  0  0  0
M  END
> <ChemID>
105280

> <source_casrn>
13417-43-1

> <CAS>
NOCAS_871215

> <SMILES>
CC=C(C)CCl

> <NAME>
2-BUTENE, 1-CHLORO-2-METHYL-

> <preferred_name>


> <iupac>


> <MPID>
24136

> <dsstox_substance_id>
DTXSID80871215

> <Canonical_QSARr>
CC=C(C)CCl

> <InChI_Code_QSARr>
InChI=1S/C5H9Cl/c1-3-5(2)4-6/h3H,4H2,1-2H3/b5-3+

> <InChI Key_QSARr>
ZAJKEDQTROWDDD-HWKANZROSA-N

> <Salt_Solvent>
?

> <BP>
110.0

$$$$
105284
  -INDIGO-08031720192D

 32 31  0  0  0  0  0  0  0  0999 V2000
   -0.0000    0.0000    0.0000 C   0  0  0  0  0  0  0  0  0  0  0  0
   -0.0000   -1.6000    0.0000 H   0  0  0  0  0  0  0  0  0  0  0  0
    1.5758   -0.2778    0.0000 C   0  0  0  0  0  0  0  0  0  0  0  0
    0.9634   -1.7561    0.0000 H   0  0  0  0  0  0  0  0  0  0  0  0
    2.1879   -1.7561    0.0000 H   0  0  0  0  0  0  0  0  0  0  0  0
    3.0792    0.2693    0.0000 C   0  0  0  0  0  0  0  0  0  0  0  0
    3.9390    1.6188    0.0000 H   0  0  0  0  0  0  0  0  0  0  0  0
    2.7330    1.8314    0.0000 H   0  0  0  0  0  0  0  0  0  0  0  0
    4.3048   -0.7590    0.0000 C   0  0  0  0  0  0  0  0  0  0  0  0
    3.2763   -1.9847    0.0000 H   0  0  0  0  0  0  0  0  0  0  0  0
    5.5305   -1.7875    0.0000 C   0  0  0  0  0  0  0  0  0  0  0  0
    6.7561   -2.8159    0.0000 H   0  0  0  0  0  0  0  0  0  0  0  0
    7.0341   -1.2403    0.0000 H   0  0  0  0  0  0  0  0  0  0  0  0
    5.2527   -3.3632    0.0000 H   0  0  0  0  0  0  0  0  0  0  0  0
    5.3333    0.4666    0.0000 C   0  0  0  0  0  0  0  0  0  0  0  0
    6.3618    1.6923    0.0000 H   0  0  0  0  0  0  0  0  0  0  0  0
    5.0555    2.0423    0.0000 H   0  0  0  0  0  0  0  0  0  0  0  0
    6.9091    0.1888    0.0000 H   0  0  0  0  0  0  0  0  0  0  0  0
   -1.5757   -0.2778    0.0000 C   0  0  0  0  0  0  0  0  0  0  0  0
   -2.9949    0.4609    0.0000 H   0  0  0  0  0  0  0  0  0  0  0  0
   -2.0568    1.2481    0.0000 H   0  0  0  0  0  0  0  0  0  0  0  0
   -2.1230   -1.7814    0.0000 C   0  0  0  0  0  0  0  0  0  0  0  0
   -2.6701   -3.2849    0.0000 H   0  0  0  0  0  0  0  0  0  0  0  0
   -3.6986   -2.0592    0.0000 H   0  0  0  0  0  0  0  0  0  0  0  0
   -1.0945   -3.0071    0.0000 H   0  0  0  0  0  0  0  0  0  0  0  0
   -0.0000    1.6000    0.0000 C   0  0  0  0  0  0  0  0  0  0  0  0
    0.9741    2.8694    0.0000 H   0  0  0  0  0  0  0  0  0  0  0  0
    1.5862    1.8088    0.0000 H   0  0  0  0  0  0  0  0  0  0  0  0
   -1.3857    2.3999    0.0000 C   0  0  0  0  0  0  0  0  0  0  0  0
   -1.3857    4.0000    0.0000 H   0  0  0  0  0  0  0  0  0  0  0  0
   -2.7714    3.2000    0.0000 H   0  0  0  0  0  0  0  0  0  0  0  0
   -0.0000    3.2000    0.0000 H   0  0  0  0  0  0  0  0  0  0  0  0
  1  2  1  0  0  0  0
  1  3  1  0  0  0  0
  3  4  1  0  0  0  0
  3  5  1  0  0  0  0
  3  6  1  0  0  0  0
  6  7  1  0  0  0  0
  6  8  1  0  0  0  0
  6  9  1  0  0  0  0
  9 10  1  0  0  0  0
  9 11  1  0  0  0  0
 11 12  1  0  0  0  0
 11 13  1  0  0  0  0
 11 14  1  0  0  0  0
  9 15  1  0  0  0  0
 15 16  1  0  0  0  0
 15 17  1  0  0  0  0
 15 18  1  0  0  0  0
  1 19  1  0  0  0  0
 19 20  1  0  0  0  0
 19 21  1  0  0  0  0
 19 22  1  0  0  0  0
 22 23  1  0  0  0  0
 22 24  1  0  0  0  0
 22 25  1  0  0  0  0
  1 26  1  0  0  0  0
 26 27  1  0  0  0  0
 26 28  1  0  0  0  0
 26 29  1  0  0  0  0
 29 30  1  0  0  0  0
 29 31  1  0  0  0  0
 29 32  1  0  0  0  0
M  END
> <ChemID>
105284

> <source_casrn>
13475-78-0

> <CAS>
13475-78-0

> <SMILES>
CC(C)CCC(CC)CC

> <NAME>
HEPTANE, 5-ETHYL-2-METHYL-

> <preferred_name>
Heptane, 5-ethyl-2-methyl-

> <iupac>
5-ETHYL-2-METHYLHEPTANE

> <MPID>
24140

> <dsstox_substance_id>
DTXSID40158933

> <Canonical_QSARr>
CC(C)CCC(CC)CC

> <InChI_Code_QSARr>
InChI=1S/C10H22/c1-5-10(6-2)8-7-9(3)4/h9-10H,5-8H2,1-4H3

> <InChI Key_QSARr>
DGEMPTLPTFNEHJ-UHFFFAOYSA-N

> <Salt_Solvent>
?

> <BP>
159.7

$$$$
105288
  -INDIGO-08031720192D

 16 16  0  0  0  0  0  0  0  0999 V2000
    0.0000    2.7713    0.0000 Cl  0  0  0  0  0  0  0  0  0  0  0  0
   -0.8001    1.3856    0.0000 C   0  0  0  0  0  0  0  0  0  0  0  0
    0.0000   -0.0000    0.0000 C   0  0  0  0  0  0  0  0  0  0  0  0
    1.6000   -0.0000    0.0000 C   0  0  0  0  0  0  0  0  0  0  0  0
    3.2000   -0.0000    0.0000 H   0  0  0  0  0  0  0  0  0  0  0  0
    2.4001   -1.3856    0.0000 H   0  0  0  0  0  0  0  0  0  0  0  0
    2.4001    1.3856    0.0000 H   0  0  0  0  0  0  0  0  0  0  0  0
   -0.7999   -1.3856    0.0000 C   0  0  0  0  0  0  0  0  0  0  0  0
    0.0000   -2.7713    0.0000 H   0  0  0  0  0  0  0  0  0  0  0  0
   -2.4001   -1.3856    0.0000 C   0  0  0  0  0  0  0  0  0  0  0  0
   -3.2000   -2.7713    0.0000 H   0  0  0  0  0  0  0  0  0  0  0  0
   -3.2000   -0.0000    0.0000 C   0  0  0  0  0  0  0  0  0  0  0  0
   -4.8000   -0.0000    0.0000 Cl  0  0  0  0  0  0  0  0  0  0  0  0
   -2.4001    1.3856    0.0000 C   0  0  0  0  0  0  0  0  0  0  0  0
   -3.2000    2.7713    0.0000 O   0  0  0  0  0  0  0  0  0  0  0  0
   -4.8000    2.7713    0.0000 H   0  0  0  0  0  0  0  0  0  0  0  0
  1  2  1  0  0  0  0
  2  3  1  0  0  0  0
  3  4  1  0  0  0  0
  4  5  1  0  0  0  0
  4  6  1  0  0  0  0
  4  7  1  0  0  0  0
  3  8  2  0  0  0  0
  8  9  1  0  0  0  0
  8 10  1  0  0  0  0
 10 11  1  0  0  0  0
 10 12  2  0  0  0  0
 12 13  1  0  0  0  0
 12 14  1  0  0  0  0
 14  2  2  0  0  0  0
 14 15  1  0  0  0  0
 15 16  1  0  0  0  0
M  END
> <ChemID>
105288

> <source_casrn>
13481-70-4

> <CAS>
13481-70-4

> <SMILES>
Cc1ccc(Cl)c(O)c1Cl

> <NAME>
2,6-Dichloro-3-methyl-phenol

> <preferred_name>
2,6-Dichloro-m-cresol

> <iupac>
2,6-Dichloro-3-methylphenol

> <MPID>
24144

> <dsstox_substance_id>
DTXSID30158962

> <Canonical_QSARr>
Cc1ccc(Cl)c(O)c1Cl

> <InChI_Code_QSARr>
InChI=1S/C7H6Cl2O/c1-4-2-3-5(8)7(10)6(4)9/h2-3,10H,1H3

> <InChI Key_QSARr>
SXHLRMKATYCFRY-UHFFFAOYSA-N

> <Salt_Solvent>
?

> <BP>
237.0

$$$$
105292
  -INDIGO-08031720192D

 12 11  0  0  0  0  0  0  0  0999 V2000
    1.3856   -0.8000    0.0000 C   0  0  0  0  0  0  0  0  0  0  0  0
    2.7713   -1.6000    0.0000 H   0  0  0  0  0  0  0  0  0  0  0  0
    2.7713    0.0000    0.0000 H   0  0  0  0  0  0  0  0  0  0  0  0
    0.0000    0.0000    0.0000 C   0  0  0  0  0  0  0  0  0  0  0  0
   -1.3856   -0.8000    0.0000 C   0  0  0  0  0  0  0  0  0  0  0  0
   -1.3856   -2.4000    0.0000 H   0  0  0  0  0  0  0  0  0  0  0  0
   -2.7713    0.0000    0.0000 C   0  0  0  0  0  0  0  0  0  0  0  0
   -4.1569    0.8000    0.0000 H   0  0  0  0  0  0  0  0  0  0  0  0
   -4.1569   -0.8000    0.0000 H   0  0  0  0  0  0  0  0  0  0  0  0
   -2.7713    1.6000    0.0000 H   0  0  0  0  0  0  0  0  0  0  0  0
    0.0000    1.6000    0.0000 Cl  0  0  0  0  0  0  0  0  0  0  0  0
    1.3856   -2.4000    0.0000 Cl  0  0  0  0  0  0  0  0  0  0  0  0
  1  2  1  0  0  0  0
  1  3  1  0  0  0  0
  1  4  1  0  0  0  0
  4  5  2  0  0  0  0
  5  6  1  0  0  0  0
  5  7  1  0  0  0  0
  7  8  1  0  0  0  0
  7  9  1  0  0  0  0
  7 10  1  0  0  0  0
  4 11  1  0  0  0  0
  1 12  1  0  0  0  0
M  END
> <ChemID>
105292

> <source_casrn>
13602-13-6

> <CAS>
NOCAS_871222

> <SMILES>
CC=C(Cl)CCl

> <NAME>
1,2-Dichloro-but-2-ene

> <preferred_name>


> <iupac>


> <MPID>
24148

> <dsstox_substance_id>
DTXSID50871222

> <Canonical_QSARr>
CC=C(Cl)CCl

> <InChI_Code_QSARr>
InChI=1S/C4H6Cl2/c1-2-4(6)3-5/h2H,3H2,1H3/b4-2-

> <InChI Key_QSARr>
VOGHDWQJCXXBMH-RQOWECAXSA-N

> <Salt_Solvent>
?

> <BP>
130.5

$$$$
105296
  -INDIGO-08031720192D

 14 13  0  0  0  0  0  0  0  0999 V2000
    0.0000    0.0000    0.0000 C   0  0  0  0  0  0  0  0  0  0  0  0
    0.6123   -1.4782    0.0000 H   0  0  0  0  0  0  0  0  0  0  0  0
   -0.6123   -1.4782    0.0000 H   0  0  0  0  0  0  0  0  0  0  0  0
    1.3857    0.8000    0.0000 C   0  0  0  0  0  0  0  0  0  0  0  0
    2.7713    1.6000    0.0000 H   0  0  0  0  0  0  0  0  0  0  0  0
    2.7713    0.0000    0.0000 H   0  0  0  0  0  0  0  0  0  0  0  0
    1.3857    2.4000    0.0000 H   0  0  0  0  0  0  0  0  0  0  0  0
   -1.3856    0.8000    0.0000 C   0  0  0  0  0  0  0  0  0  0  0  0
   -2.7713    1.6000    0.0000 C   0  0  0  0  0  0  0  0  0  0  0  0
   -4.1570    2.4000    0.0000 C   0  0  0  0  0  0  0  0  0  0  0  0
   -4.1570    4.0000    0.0000 H   0  0  0  0  0  0  0  0  0  0  0  0
   -5.5426    1.6000    0.0000 C   0  0  0  0  0  0  0  0  0  0  0  0
   -6.9282    2.4000    0.0000 H   0  0  0  0  0  0  0  0  0  0  0  0
   -5.5426    0.0000    0.0000 H   0  0  0  0  0  0  0  0  0  0  0  0
  1  2  1  0  0  0  0
  1  3  1  0  0  0  0
  1  4  1  0  0  0  0
  4  5  1  0  0  0  0
  4  6  1  0  0  0  0
  4  7  1  0  0  0  0
  1  8  1  0  0  0  0
  8  9  3  0  0  0  0
  9 10  1  0  0  0  0
 10 11  1  0  0  0  0
 10 12  2  0  0  0  0
 12 13  1  0  0  0  0
 12 14  1  0  0  0  0
M  END
> <ChemID>
105296

> <source_casrn>
13721-54-5

> <CAS>
13721-54-5

> <SMILES>
CCC#CC=C

> <NAME>
1-HEXEN-3-YNE

> <preferred_name>
1-Hexen-3-yne

> <iupac>
hex-1-en-3-yne

> <MPID>
24152

> <dsstox_substance_id>
DTXSID10160109

> <Canonical_QSARr>
CCC#CC=C

> <InChI_Code_QSARr>
InChI=1S/C6H8/c1-3-5-6-4-2/h3H,1,4H2,2H3

> <InChI Key_QSARr>
BYSRUWKGUGERFI-UHFFFAOYSA-N

> <Salt_Solvent>
?

> <BP>
85.0

$$$$
105300
  -INDIGO-08031720192D

 26 26  0  0  0  0  0  0  0  0999 V2000
    2.4000    1.3857    0.0000 C   0  0  0  0  0  0  0  0  0  0  0  0
    3.2000    0.0000    0.0000 C   0  0  0  0  0  0  0  0  0  0  0  0
    4.8000    0.0000    0.0000 H   0  0  0  0  0  0  0  0  0  0  0  0
    2.4000   -1.3856    0.0000 C   0  0  0  0  0  0  0  0  0  0  0  0
    3.9036   -1.9328    0.0000 H   0  0  0  0  0  0  0  0  0  0  0  0
    2.1221   -2.9613    0.0000 H   0  0  0  0  0  0  0  0  0  0  0  0
    0.8000   -1.3856    0.0000 C   0  0  0  0  0  0  0  0  0  0  0  0
    1.0778   -2.9613    0.0000 H   0  0  0  0  0  0  0  0  0  0  0  0
   -0.7034   -1.9328    0.0000 H   0  0  0  0  0  0  0  0  0  0  0  0
    0.0000    0.0000    0.0000 C   0  0  0  0  0  0  0  0  0  0  0  0
   -1.2257   -1.0285    0.0000 H   0  0  0  0  0  0  0  0  0  0  0  0
   -1.3856    0.8000    0.0000 C   0  0  0  0  0  0  0  0  0  0  0  0
   -1.6634    2.3757    0.0000 C   0  0  0  0  0  0  0  0  0  0  0  0
   -3.1670    2.9229    0.0000 H   0  0  0  0  0  0  0  0  0  0  0  0
   -0.4378    3.4042    0.0000 H   0  0  0  0  0  0  0  0  0  0  0  0
   -2.7713    0.0000    0.0000 C   0  0  0  0  0  0  0  0  0  0  0  0
   -4.1569   -0.8000    0.0000 H   0  0  0  0  0  0  0  0  0  0  0  0
   -4.1569    0.8000    0.0000 H   0  0  0  0  0  0  0  0  0  0  0  0
   -2.7713   -1.6000    0.0000 H   0  0  0  0  0  0  0  0  0  0  0  0
    0.8000    1.3857    0.0000 C   0  0  0  0  0  0  0  0  0  0  0  0
   -0.7034    1.9329    0.0000 H   0  0  0  0  0  0  0  0  0  0  0  0
    1.0778    2.9614    0.0000 H   0  0  0  0  0  0  0  0  0  0  0  0
    3.2000    2.7713    0.0000 C   0  0  0  0  0  0  0  0  0  0  0  0
    4.0000    4.1569    0.0000 H   0  0  0  0  0  0  0  0  0  0  0  0
    4.8000    2.7713    0.0000 H   0  0  0  0  0  0  0  0  0  0  0  0
    2.4000    4.1569    0.0000 H   0  0  0  0  0  0  0  0  0  0  0  0
  1  2  2  0  0  0  0
  2  3  1  0  0  0  0
  2  4  1  0  0  0  0
  4  5  1  0  0  0  0
  4  6  1  0  0  0  0
  4  7  1  0  0  0  0
  7  8  1  0  0  0  0
  7  9  1  0  0  0  0
  7 10  1  0  0  0  0
 10 11  1  0  0  0  0
 10 12  1  0  0  0  0
 12 13  2  0  0  0  0
 13 14  1  0  0  0  0
 13 15  1  0  0  0  0
 12 16  1  0  0  0  0
 16 17  1  0  0  0  0
 16 18  1  0  0  0  0
 16 19  1  0  0  0  0
 10 20  1  0  0  0  0
 20  1  1  0  0  0  0
 20 21  1  0  0  0  0
 20 22  1  0  0  0  0
  1 23  1  0  0  0  0
 23 24  1  0  0  0  0
 23 25  1  0  0  0  0
 23 26  1  0  0  0  0
M  END
> <ChemID>
105300

> <source_casrn>
13898-73-2

> <CAS>
NOCAS_871225

> <SMILES>
CC1CC(CCC=1)C(C)=C

> <NAME>
CYCLOHEXENE, 1-METHYL-5-(1-METHYLETHENYL)-

> <preferred_name>


> <iupac>


> <MPID>
24156

> <dsstox_substance_id>
DTXSID30871225

> <Canonical_QSARr>
CC1CC(CCC=1)C(C)=C

> <InChI_Code_QSARr>
InChI=1S/C10H16/c1-8(2)10-6-4-5-9(3)7-10/h5,10H,1,4,6-7H2,2-3H3

> <InChI Key_QSARr>
JWQKMEKSFPNAIB-UHFFFAOYSA-N

> <Salt_Solvent>
?

> <BP>
176.0

$$$$
105305
  -INDIGO-08031720192D

 25 24  0  0  0  0  0  0  0  0999 V2000
    2.7713   -1.6000    0.0000 O   0  0  0  0  0  0  0  0  0  0  0  0
    2.7713    0.0000    0.0000 C   0  0  0  0  0  0  0  0  0  0  0  0
    4.1570    0.8000    0.0000 O   0  0  0  0  0  0  0  0  0  0  0  0
    5.5426    0.0000    0.0000 C   0  0  0  0  0  0  0  0  0  0  0  0
    4.9302   -1.4782    0.0000 H   0  0  0  0  0  0  0  0  0  0  0  0
    6.1549   -1.4782    0.0000 H   0  0  0  0  0  0  0  0  0  0  0  0
    6.9283    0.8000    0.0000 C   0  0  0  0  0  0  0  0  0  0  0  0
    8.3138    1.6000    0.0000 H   0  0  0  0  0  0  0  0  0  0  0  0
    8.3138    0.0000    0.0000 H   0  0  0  0  0  0  0  0  0  0  0  0
    6.9283    2.4000    0.0000 H   0  0  0  0  0  0  0  0  0  0  0  0
    1.3857    0.8000    0.0000 C   0  0  0  0  0  0  0  0  0  0  0  0
    1.9979    2.2782    0.0000 H   0  0  0  0  0  0  0  0  0  0  0  0
    0.7734    2.2782    0.0000 H   0  0  0  0  0  0  0  0  0  0  0  0
    0.0000    0.0000    0.0000 C   0  0  0  0  0  0  0  0  0  0  0  0
   -0.6123   -1.4782    0.0000 H   0  0  0  0  0  0  0  0  0  0  0  0
    0.6123   -1.4782    0.0000 H   0  0  0  0  0  0  0  0  0  0  0  0
   -1.3857    0.8000    0.0000 C   0  0  0  0  0  0  0  0  0  0  0  0
   -0.7734    2.2782    0.0000 H   0  0  0  0  0  0  0  0  0  0  0  0
   -1.9979    2.2782    0.0000 H   0  0  0  0  0  0  0  0  0  0  0  0
   -2.7713    0.0000    0.0000 C   0  0  0  0  0  0  0  0  0  0  0  0
   -2.7713   -1.6000    0.0000 O   0  0  0  0  0  0  0  0  0  0  0  0
   -4.1568    0.8000    0.0000 C   0  0  0  0  0  0  0  0  0  0  0  0
   -5.5426    1.6000    0.0000 H   0  0  0  0  0  0  0  0  0  0  0  0
   -5.5426    0.0000    0.0000 H   0  0  0  0  0  0  0  0  0  0  0  0
   -4.1568    2.4000    0.0000 H   0  0  0  0  0  0  0  0  0  0  0  0
  1  2  2  0  0  0  0
  2  3  1  0  0  0  0
  3  4  1  0  0  0  0
  4  5  1  0  0  0  0
  4  6  1  0  0  0  0
  4  7  1  0  0  0  0
  7  8  1  0  0  0  0
  7  9  1  0  0  0  0
  7 10  1  0  0  0  0
  2 11  1  0  0  0  0
 11 12  1  0  0  0  0
 11 13  1  0  0  0  0
 11 14  1  0  0  0  0
 14 15  1  0  0  0  0
 14 16  1  0  0  0  0
 14 17  1  0  0  0  0
 17 18  1  0  0  0  0
 17 19  1  0  0  0  0
 17 20  1  0  0  0  0
 20 21  2  0  0  0  0
 20 22  1  0  0  0  0
 22 23  1  0  0  0  0
 22 24  1  0  0  0  0
 22 25  1  0  0  0  0
M  END
> <ChemID>
105305

> <source_casrn>
13984-57-1

> <CAS>
13984-57-1

> <SMILES>
CC(=O)CCCC(=O)OCC

> <NAME>
Hexanoic acid, 5-oxo-, ethyl ester

> <preferred_name>
Ethyl 5-oxohexanoate

> <iupac>


> <MPID>
24161

> <dsstox_substance_id>
DTXSID6065688

> <Canonical_QSARr>
CC(=O)CCCC(=O)OCC

> <InChI_Code_QSARr>
InChI=1S/C8H14O3/c1-3-11-8(10)6-4-5-7(2)9/h3-6H2,1-2H3

> <InChI Key_QSARr>
MGPSIDGTLFKDEY-UHFFFAOYSA-N

> <Salt_Solvent>
?

> <BP>
221.5

$$$$
105309
  -INDIGO-08031720192D

 14 13  0  0  0  0  0  0  0  0999 V2000
    4.1570    2.4000    0.0000 Cl  0  0  0  0  0  0  0  0  0  0  0  0
    4.1569    0.8000    0.0000 C   0  0  0  0  0  0  0  0  0  0  0  0
    5.5426    0.0000    0.0000 O   0  0  0  0  0  0  0  0  0  0  0  0
    2.7713    0.0000    0.0000 C   0  0  0  0  0  0  0  0  0  0  0  0
    2.1590   -1.4782    0.0000 H   0  0  0  0  0  0  0  0  0  0  0  0
    3.3835   -1.4782    0.0000 H   0  0  0  0  0  0  0  0  0  0  0  0
    1.3857    0.8000    0.0000 O   0  0  0  0  0  0  0  0  0  0  0  0
    0.0000    0.0000    0.0000 C   0  0  0  0  0  0  0  0  0  0  0  0
   -0.6122   -1.4782    0.0000 H   0  0  0  0  0  0  0  0  0  0  0  0
    0.6122   -1.4782    0.0000 H   0  0  0  0  0  0  0  0  0  0  0  0
   -1.3856    0.8000    0.0000 C   0  0  0  0  0  0  0  0  0  0  0  0
   -2.7713    1.6000    0.0000 H   0  0  0  0  0  0  0  0  0  0  0  0
   -2.7713    0.0000    0.0000 H   0  0  0  0  0  0  0  0  0  0  0  0
   -1.3856    2.4000    0.0000 H   0  0  0  0  0  0  0  0  0  0  0  0
  1  2  1  0  0  0  0
  2  3  2  0  0  0  0
  2  4  1  0  0  0  0
  4  5  1  0  0  0  0
  4  6  1  0  0  0  0
  4  7  1  0  0  0  0
  7  8  1  0  0  0  0
  8  9  1  0  0  0  0
  8 10  1  0  0  0  0
  8 11  1  0  0  0  0
 11 12  1  0  0  0  0
 11 13  1  0  0  0  0
 11 14  1  0  0  0  0
M  END
> <ChemID>
105309

> <source_casrn>
14077-58-8

> <CAS>
14077-58-8

> <SMILES>
CCOCC(=O)Cl

> <NAME>
Ethoxy-acetyl chloride

> <preferred_name>
Ethoxyacetyl chloride

> <iupac>
2-ethoxyacetyl chloride

> <MPID>
24165

> <dsstox_substance_id>
DTXSID50161473

> <Canonical_QSARr>
CCOCC(=O)Cl

> <InChI_Code_QSARr>
InChI=1S/C4H7ClO2/c1-2-7-3-4(5)6/h2-3H2,1H3

> <InChI Key_QSARr>
ZPMWWAIBJJFPPQ-UHFFFAOYSA-N

> <Salt_Solvent>
?

> <BP>
125.0

$$$$
105313
  -INDIGO-08031720192D

 20 19  0  0  0  0  0  0  0  0999 V2000
    0.8384   -3.9035    0.0000 O   0  0  0  0  0  0  0  0  0  0  0  0
    2.2241   -4.7035    0.0000 H   0  0  0  0  0  0  0  0  0  0  0  0
    0.8384   -2.3035    0.0000 C   0  0  0  0  0  0  0  0  0  0  0  0
    2.2241   -1.5035    0.0000 O   0  0  0  0  0  0  0  0  0  0  0  0
   -0.5472   -1.5035    0.0000 C   0  0  0  0  0  0  0  0  0  0  0  0
   -1.9329   -0.7035    0.0000 H   0  0  0  0  0  0  0  0  0  0  0  0
    0.0000    0.0000    0.0000 C   0  0  0  0  0  0  0  0  0  0  0  0
    1.3856   -0.8000    0.0000 H   0  0  0  0  0  0  0  0  0  0  0  0
    0.8000    1.3856    0.0000 C   0  0  0  0  0  0  0  0  0  0  0  0
    1.6000    2.7713    0.0000 H   0  0  0  0  0  0  0  0  0  0  0  0
    2.4000    1.3856    0.0000 H   0  0  0  0  0  0  0  0  0  0  0  0
    0.0000    2.7713    0.0000 H   0  0  0  0  0  0  0  0  0  0  0  0
   -1.3856    0.8000    0.0000 C   0  0  0  0  0  0  0  0  0  0  0  0
   -2.7713    1.6000    0.0000 H   0  0  0  0  0  0  0  0  0  0  0  0
   -1.3856    2.4000    0.0000 H   0  0  0  0  0  0  0  0  0  0  0  0
   -2.7713    0.0000    0.0000 H   0  0  0  0  0  0  0  0  0  0  0  0
   -1.3473   -2.8892    0.0000 C   0  0  0  0  0  0  0  0  0  0  0  0
   -2.1472   -4.2748    0.0000 H   0  0  0  0  0  0  0  0  0  0  0  0
   -0.5472   -4.2748    0.0000 H   0  0  0  0  0  0  0  0  0  0  0  0
   -2.9472   -2.8892    0.0000 H   0  0  0  0  0  0  0  0  0  0  0  0
  1  2  1  0  0  0  0
  1  3  1  0  0  0  0
  3  4  2  0  0  0  0
  3  5  1  0  0  0  0
  5  6  1  0  0  0  0
  5  7  1  0  0  0  0
  7  8  1  0  0  0  0
  7  9  1  0  0  0  0
  9 10  1  0  0  0  0
  9 11  1  0  0  0  0
  9 12  1  0  0  0  0
  7 13  1  0  0  0  0
 13 14  1  0  0  0  0
 13 15  1  0  0  0  0
 13 16  1  0  0  0  0
  5 17  1  0  0  0  0
 17 18  1  0  0  0  0
 17 19  1  0  0  0  0
 17 20  1  0  0  0  0
M  END
> <ChemID>
105313

> <source_casrn>
14287-61-7

> <CAS>
27855-05-6

> <SMILES>
CC(C)[C@@H](C)C(O)=O

> <NAME>
2,3-DIMETHYLBUTYRIC ACID

> <preferred_name>
PUBCHEM_16126808

> <iupac>
C6H12O2

> <MPID>
24169

> <dsstox_substance_id>
DTXSID10583132

> <Canonical_QSARr>
CC(C)C(C)C(O)=O

> <InChI_Code_QSARr>
InChI=1S/C6H12O2/c1-4(2)5(3)6(7)8/h4-5H,1-3H3,(H,7,8)

> <InChI Key_QSARr>
XFOASZQZPWEJAA-UHFFFAOYSA-N

> <Salt_Solvent>
?

> <BP>
191.7

$$$$
105317
  -INDIGO-08031720192D

 11 10  0  0  0  0  0  0  0  0999 V2000
    1.3856    2.4000    0.0000 Br  0  0  0  0  0  0  0  0  0  0  0  0
    1.3856    0.8000    0.0000 C   0  0  0  0  0  0  0  0  0  0  0  0
    2.7713    1.6000    0.0000 H   0  0  0  0  0  0  0  0  0  0  0  0
    2.7713    0.0000    0.0000 H   0  0  0  0  0  0  0  0  0  0  0  0
    0.0000    0.0000    0.0000 C   0  0  0  0  0  0  0  0  0  0  0  0
    0.6123   -1.4782    0.0000 Br  0  0  0  0  0  0  0  0  0  0  0  0
   -0.6123   -1.4782    0.0000 Br  0  0  0  0  0  0  0  0  0  0  0  0
   -1.3856    0.8000    0.0000 C   0  0  0  0  0  0  0  0  0  0  0  0
   -2.7713    1.6000    0.0000 H   0  0  0  0  0  0  0  0  0  0  0  0
   -2.7713    0.0000    0.0000 H   0  0  0  0  0  0  0  0  0  0  0  0
   -1.3856    2.4000    0.0000 H   0  0  0  0  0  0  0  0  0  0  0  0
  1  2  1  0  0  0  0
  2  3  1  0  0  0  0
  2  4  1  0  0  0  0
  2  5  1  0  0  0  0
  5  6  1  0  0  0  0
  5  7  1  0  0  0  0
  5  8  1  0  0  0  0
  8  9  1  0  0  0  0
  8 10  1  0  0  0  0
  8 11  1  0  0  0  0
M  END
> <ChemID>
105317

> <source_casrn>
14476-30-3

> <CAS>
14476-30-3

> <SMILES>
CC(Br)(Br)CBr

> <NAME>
Propane, 1,2,2-tribromo-

> <preferred_name>
Propane, 1,2,2-tribromo-

> <iupac>
1,2,2-Tribromopropane

> <MPID>
24173

> <dsstox_substance_id>
DTXSID0065775

> <Canonical_QSARr>
CC(Br)(Br)CBr

> <InChI_Code_QSARr>
InChI=1S/C3H5Br3/c1-3(5,6)2-4/h2H2,1H3

> <InChI Key_QSARr>
IELJYJRPJJILHQ-UHFFFAOYSA-N

> <Salt_Solvent>
?

> <BP>
190.5

$$$$
105321
  -INDIGO-08031720192D

 11 10  0  0  0  0  0  0  0  0999 V2000
    1.3856    0.8000    0.0000 C   0  0  0  0  0  0  0  0  0  0  0  0
    2.7713    1.6000    0.0000 H   0  0  0  0  0  0  0  0  0  0  0  0
    0.0000    0.0000    0.0000 C   0  0  0  0  0  0  0  0  0  0  0  0
    0.6123   -1.4782    0.0000 H   0  0  0  0  0  0  0  0  0  0  0  0
   -1.3856    0.8000    0.0000 C   0  0  0  0  0  0  0  0  0  0  0  0
   -2.7713    1.6000    0.0000 H   0  0  0  0  0  0  0  0  0  0  0  0
   -2.7713    0.0000    0.0000 H   0  0  0  0  0  0  0  0  0  0  0  0
   -1.3856    2.4000    0.0000 H   0  0  0  0  0  0  0  0  0  0  0  0
   -0.6123   -1.4782    0.0000 Br  0  0  0  0  0  0  0  0  0  0  0  0
    2.7713    0.0000    0.0000 Br  0  0  0  0  0  0  0  0  0  0  0  0
    1.3856    2.4000    0.0000 Br  0  0  0  0  0  0  0  0  0  0  0  0
  1  2  1  0  0  0  0
  1  3  1  0  0  0  0
  3  4  1  0  0  0  0
  3  5  1  0  0  0  0
  5  6  1  0  0  0  0
  5  7  1  0  0  0  0
  5  8  1  0  0  0  0
  3  9  1  0  0  0  0
  1 10  1  0  0  0  0
  1 11  1  0  0  0  0
M  END
> <ChemID>
105321

> <source_casrn>
14602-62-1

> <CAS>
NOCAS_871230

> <SMILES>
CC(Br)C(Br)Br

> <NAME>
Propane, 1,1,2-tribromo-

> <preferred_name>


> <iupac>


> <MPID>
24177

> <dsstox_substance_id>
DTXSID80871230

> <Canonical_QSARr>
CC(Br)C(Br)Br

> <InChI_Code_QSARr>
InChI=1S/C3H5Br3/c1-2(4)3(5)6/h2-3H,1H3

> <InChI Key_QSARr>
ZLOLQHBVMYXNHX-UHFFFAOYSA-N

> <Salt_Solvent>
?

> <BP>
200.5

$$$$
105326
  -INDIGO-08031720192D

 76 76  0  0  0  0  0  0  0  0999 V2000
    0.0000   -0.0001    0.0000 Si  0  0  0  0  0  0  0  0  0  0  0  0
    0.4142   -1.5454    0.0000 O   0  0  0  0  0  0  0  0  0  0  0  0
   -0.3860   -2.9311    0.0000 Si  0  0  0  0  0  0  0  0  0  0  0  0
    1.0641   -3.6072    0.0000 C   0  0  0  0  0  0  0  0  0  0  0  0
    2.6262   -3.2611    0.0000 H   0  0  0  0  0  0  0  0  0  0  0  0
    2.1452   -2.4277    0.0000 H   0  0  0  0  0  0  0  0  0  0  0  0
    1.9819   -4.9180    0.0000 C   0  0  0  0  0  0  0  0  0  0  0  0
    0.8023   -5.9989    0.0000 H   0  0  0  0  0  0  0  0  0  0  0  0
    1.9122   -6.5163    0.0000 H   0  0  0  0  0  0  0  0  0  0  0  0
    3.5759   -4.7785    0.0000 C   0  0  0  0  0  0  0  0  0  0  0  0
    4.7554   -3.6975    0.0000 H   0  0  0  0  0  0  0  0  0  0  0  0
    3.6456   -3.1801    0.0000 H   0  0  0  0  0  0  0  0  0  0  0  0
    4.4936   -6.0892    0.0000 C   0  0  0  0  0  0  0  0  0  0  0  0
    5.4112   -7.3998    0.0000 H   0  0  0  0  0  0  0  0  0  0  0  0
    6.0874   -5.9498    0.0000 H   0  0  0  0  0  0  0  0  0  0  0  0
    3.8174   -7.5392    0.0000 H   0  0  0  0  0  0  0  0  0  0  0  0
   -0.3860   -4.5311    0.0000 C   0  0  0  0  0  0  0  0  0  0  0  0
   -0.3860   -6.1311    0.0000 H   0  0  0  0  0  0  0  0  0  0  0  0
   -1.7714   -5.3311    0.0000 H   0  0  0  0  0  0  0  0  0  0  0  0
    1.1176   -5.0785    0.0000 H   0  0  0  0  0  0  0  0  0  0  0  0
   -1.9313   -3.3452    0.0000 O   0  0  0  0  0  0  0  0  0  0  0  0
   -3.3170   -2.5452    0.0000 Si  0  0  0  0  0  0  0  0  0  0  0  0
   -4.9171   -2.5452    0.0000 C   0  0  0  0  0  0  0  0  0  0  0  0
   -4.8472   -0.9468    0.0000 H   0  0  0  0  0  0  0  0  0  0  0  0
   -5.9980   -1.3657    0.0000 H   0  0  0  0  0  0  0  0  0  0  0  0
   -6.1427   -3.5736    0.0000 C   0  0  0  0  0  0  0  0  0  0  0  0
   -6.4891   -5.1358    0.0000 H   0  0  0  0  0  0  0  0  0  0  0  0
   -5.2829   -4.9232    0.0000 H   0  0  0  0  0  0  0  0  0  0  0  0
   -7.6463   -3.0265    0.0000 C   0  0  0  0  0  0  0  0  0  0  0  0
   -7.2999   -1.4645    0.0000 H   0  0  0  0  0  0  0  0  0  0  0  0
   -8.5058   -1.6771    0.0000 H   0  0  0  0  0  0  0  0  0  0  0  0
   -8.8718   -4.0549    0.0000 C   0  0  0  0  0  0  0  0  0  0  0  0
  -10.0976   -5.0835    0.0000 H   0  0  0  0  0  0  0  0  0  0  0  0
  -10.3754   -3.5077    0.0000 H   0  0  0  0  0  0  0  0  0  0  0  0
   -8.5941   -5.6306    0.0000 H   0  0  0  0  0  0  0  0  0  0  0  0
   -3.7312   -4.0908    0.0000 C   0  0  0  0  0  0  0  0  0  0  0  0
   -4.4074   -5.5408    0.0000 H   0  0  0  0  0  0  0  0  0  0  0  0
   -2.8134   -5.4013    0.0000 H   0  0  0  0  0  0  0  0  0  0  0  0
   -5.3249   -3.9513    0.0000 H   0  0  0  0  0  0  0  0  0  0  0  0
   -3.7312   -0.9996    0.0000 O   0  0  0  0  0  0  0  0  0  0  0  0
   -2.9310    0.3859    0.0000 Si  0  0  0  0  0  0  0  0  0  0  0  0
   -2.9310    1.9859    0.0000 C   0  0  0  0  0  0  0  0  0  0  0  0
   -1.3328    1.9161    0.0000 H   0  0  0  0  0  0  0  0  0  0  0  0
   -1.7515    3.0668    0.0000 H   0  0  0  0  0  0  0  0  0  0  0  0
   -3.9595    3.2116    0.0000 C   0  0  0  0  0  0  0  0  0  0  0  0
   -5.5215    3.5579    0.0000 H   0  0  0  0  0  0  0  0  0  0  0  0
   -5.3090    2.3519    0.0000 H   0  0  0  0  0  0  0  0  0  0  0  0
   -3.4123    4.7151    0.0000 C   0  0  0  0  0  0  0  0  0  0  0  0
   -1.8502    4.3687    0.0000 H   0  0  0  0  0  0  0  0  0  0  0  0
   -2.0630    5.5747    0.0000 H   0  0  0  0  0  0  0  0  0  0  0  0
   -4.4407    5.9408    0.0000 C   0  0  0  0  0  0  0  0  0  0  0  0
   -5.4694    7.1665    0.0000 H   0  0  0  0  0  0  0  0  0  0  0  0
   -3.8935    7.4442    0.0000 H   0  0  0  0  0  0  0  0  0  0  0  0
   -6.0166    5.6630    0.0000 H   0  0  0  0  0  0  0  0  0  0  0  0
   -4.4766    0.7999    0.0000 C   0  0  0  0  0  0  0  0  0  0  0  0
   -5.9267    1.4762    0.0000 H   0  0  0  0  0  0  0  0  0  0  0  0
   -5.7873   -0.1178    0.0000 H   0  0  0  0  0  0  0  0  0  0  0  0
   -4.3372    2.3940    0.0000 H   0  0  0  0  0  0  0  0  0  0  0  0
   -1.3857    0.7999    0.0000 O   0  0  0  0  0  0  0  0  0  0  0  0
    1.6001   -0.0001    0.0000 C   0  0  0  0  0  0  0  0  0  0  0  0
    1.5302   -1.5984    0.0000 H   0  0  0  0  0  0  0  0  0  0  0  0
    2.6810   -1.1796    0.0000 H   0  0  0  0  0  0  0  0  0  0  0  0
    2.8257    1.0286    0.0000 C   0  0  0  0  0  0  0  0  0  0  0  0
    3.1720    2.5906    0.0000 H   0  0  0  0  0  0  0  0  0  0  0  0
    1.9659    2.3780    0.0000 H   0  0  0  0  0  0  0  0  0  0  0  0
    4.3292    0.4812    0.0000 C   0  0  0  0  0  0  0  0  0  0  0  0
    3.9829   -1.0808    0.0000 H   0  0  0  0  0  0  0  0  0  0  0  0
    5.1888   -0.8682    0.0000 H   0  0  0  0  0  0  0  0  0  0  0  0
    5.5548    1.5096    0.0000 C   0  0  0  0  0  0  0  0  0  0  0  0
    6.7806    2.5382    0.0000 H   0  0  0  0  0  0  0  0  0  0  0  0
    7.0584    0.9625    0.0000 H   0  0  0  0  0  0  0  0  0  0  0  0
    5.2771    3.0854    0.0000 H   0  0  0  0  0  0  0  0  0  0  0  0
    0.4142    1.5455    0.0000 C   0  0  0  0  0  0  0  0  0  0  0  0
    1.0904    2.9955    0.0000 H   0  0  0  0  0  0  0  0  0  0  0  0
   -0.5036    2.8560    0.0000 H   0  0  0  0  0  0  0  0  0  0  0  0
    2.0079    1.4060    0.0000 H   0  0  0  0  0  0  0  0  0  0  0  0
  1  2  1  0  0  0  0
  2  3  1  0  0  0  0
  3  4  1  0  0  0  0
  4  5  1  0  0  0  0
  4  6  1  0  0  0  0
  4  7  1  0  0  0  0
  7  8  1  0  0  0  0
  7  9  1  0  0  0  0
  7 10  1  0  0  0  0
 10 11  1  0  0  0  0
 10 12  1  0  0  0  0
 10 13  1  0  0  0  0
 13 14  1  0  0  0  0
 13 15  1  0  0  0  0
 13 16  1  0  0  0  0
  3 17  1  0  0  0  0
 17 18  1  0  0  0  0
 17 19  1  0  0  0  0
 17 20  1  0  0  0  0
  3 21  1  0  0  0  0
 21 22  1  0  0  0  0
 22 23  1  0  0  0  0
 23 24  1  0  0  0  0
 23 25  1  0  0  0  0
 23 26  1  0  0  0  0
 26 27  1  0  0  0  0
 26 28  1  0  0  0  0
 26 29  1  0  0  0  0
 29 30  1  0  0  0  0
 29 31  1  0  0  0  0
 29 32  1  0  0  0  0
 32 33  1  0  0  0  0
 32 34  1  0  0  0  0
 32 35  1  0  0  0  0
 22 36  1  0  0  0  0
 36 37  1  0  0  0  0
 36 38  1  0  0  0  0
 36 39  1  0  0  0  0
 22 40  1  0  0  0  0
 40 41  1  0  0  0  0
 41 42  1  0  0  0  0
 42 43  1  0  0  0  0
 42 44  1  0  0  0  0
 42 45  1  0  0  0  0
 45 46  1  0  0  0  0
 45 47  1  0  0  0  0
 45 48  1  0  0  0  0
 48 49  1  0  0  0  0
 48 50  1  0  0  0  0
 48 51  1  0  0  0  0
 51 52  1  0  0  0  0
 51 53  1  0  0  0  0
 51 54  1  0  0  0  0
 41 55  1  0  0  0  0
 55 56  1  0  0  0  0
 55 57  1  0  0  0  0
 55 58  1  0  0  0  0
 41 59  1  0  0  0  0
 59  1  1  0  0  0  0
  1 60  1  0  0  0  0
 60 61  1  0  0  0  0
 60 62  1  0  0  0  0
 60 63  1  0  0  0  0
 63 64  1  0  0  0  0
 63 65  1  0  0  0  0
 63 66  1  0  0  0  0
 66 67  1  0  0  0  0
 66 68  1  0  0  0  0
 66 69  1  0  0  0  0
 69 70  1  0  0  0  0
 69 71  1  0  0  0  0
 69 72  1  0  0  0  0
  1 73  1  0  0  0  0
 73 74  1  0  0  0  0
 73 75  1  0  0  0  0
 73 76  1  0  0  0  0
M  END
> <ChemID>
105326

> <source_casrn>
14685-29-1

> <CAS>
14685-29-1

> <SMILES>
C[Si]1(CCCC)O[Si](C)(CCCC)O[Si](C)(CCCC)O[Si](C)(CCCC)O1

> <NAME>
TetraBu-tetraMe-tetroxatetrasilocane

> <preferred_name>
2,4,6,8-Tetrabutyl-2,4,6,8-tetramethylcyclotetrasiloxane

> <iupac>
2,4,6,8-Tetrabutyl-2,4,6,8-tetramethyl-1,3,5,7,2,4,6,8-tetraoxatetrasilocane

> <MPID>
24182

> <dsstox_substance_id>
DTXSID80163526

> <Canonical_QSARr>
C[Si]1(CCCC)O[Si](C)(CCCC)O[Si](C)(CCCC)O[Si](C)(CCCC)O1

> <InChI_Code_QSARr>
InChI=1S/C20H48O4Si4/c1-9-13-17-25(5)21-26(6,18-14-10-2)23-28(8,20-16-12-4)24-27(7,22-25)19-15-11-3/h9-20H2,1-8H3

> <InChI Key_QSARr>
WRMMUMWFPNLNGA-UHFFFAOYSA-N

> <Salt_Solvent>
?

> <BP>
291.0

$$$$
105332
  -INDIGO-08031720192D

 22 22  0  0  0  0  0  0  0  0999 V2000
   -2.4000    1.3856    0.0000 O   0  0  0  0  0  0  0  0  0  0  0  0
   -1.6000   -0.0000    0.0000 C   0  0  0  0  0  0  0  0  0  0  0  0
    0.0000   -0.0000    0.0000 C   0  0  0  0  0  0  0  0  0  0  0  0
    0.8000    1.3856    0.0000 C   0  0  0  0  0  0  0  0  0  0  0  0
    0.5911    2.9720    0.0000 H   0  0  0  0  0  0  0  0  0  0  0  0
   -0.4693    2.3596    0.0000 H   0  0  0  0  0  0  0  0  0  0  0  0
    2.4001    1.3856    0.0000 C   0  0  0  0  0  0  0  0  0  0  0  0
    3.2000    2.7713    0.0000 H   0  0  0  0  0  0  0  0  0  0  0  0
    4.0000    1.3856    0.0000 H   0  0  0  0  0  0  0  0  0  0  0  0
    1.6000    2.7713    0.0000 H   0  0  0  0  0  0  0  0  0  0  0  0
    0.8000   -1.3857    0.0000 C   0  0  0  0  0  0  0  0  0  0  0  0
    2.4001   -1.3857    0.0000 H   0  0  0  0  0  0  0  0  0  0  0  0
    0.0000   -2.7713    0.0000 C   0  0  0  0  0  0  0  0  0  0  0  0
    0.8000   -4.1569    0.0000 H   0  0  0  0  0  0  0  0  0  0  0  0
   -1.6000   -2.7713    0.0000 C   0  0  0  0  0  0  0  0  0  0  0  0
   -2.4000   -4.1569    0.0000 H   0  0  0  0  0  0  0  0  0  0  0  0
   -2.4000   -1.3857    0.0000 C   0  0  0  0  0  0  0  0  0  0  0  0
   -3.9999   -1.3857    0.0000 H   0  0  0  0  0  0  0  0  0  0  0  0
   -4.0001    1.3856    0.0000 C   0  0  0  0  0  0  0  0  0  0  0  0
   -4.8000    2.7713    0.0000 H   0  0  0  0  0  0  0  0  0  0  0  0
   -5.6000    1.3856    0.0000 H   0  0  0  0  0  0  0  0  0  0  0  0
   -3.2000    2.7713    0.0000 H   0  0  0  0  0  0  0  0  0  0  0  0
  1  2  1  0  0  0  0
  2  3  1  0  0  0  0
  3  4  1  0  0  0  0
  4  5  1  0  0  0  0
  4  6  1  0  0  0  0
  4  7  1  0  0  0  0
  7  8  1  0  0  0  0
  7  9  1  0  0  0  0
  7 10  1  0  0  0  0
  3 11  2  0  0  0  0
 11 12  1  0  0  0  0
 11 13  1  0  0  0  0
 13 14  1  0  0  0  0
 13 15  2  0  0  0  0
 15 16  1  0  0  0  0
 15 17  1  0  0  0  0
 17  2  2  0  0  0  0
 17 18  1  0  0  0  0
  1 19  1  0  0  0  0
 19 20  1  0  0  0  0
 19 21  1  0  0  0  0
 19 22  1  0  0  0  0
M  END
> <ChemID>
105332

> <source_casrn>
14804-32-1

> <CAS>
14804-32-1

> <SMILES>
CCc1ccccc1OC

> <NAME>
2-ETHYLANISOLE

> <preferred_name>
Benzene, 1-ethyl-2-methoxy-

> <iupac>
1-ethyl-2-methoxybenzene

> <MPID>
24186

> <dsstox_substance_id>
DTXSID10163872

> <Canonical_QSARr>
CCc1ccccc1OC

> <InChI_Code_QSARr>
InChI=1S/C9H12O/c1-3-8-6-4-5-7-9(8)10-2/h4-7H,3H2,1-2H3

> <InChI Key_QSARr>
NIEHEMAZEULEKB-UHFFFAOYSA-N

> <Salt_Solvent>
?

> <BP>
187.0

$$$$
105339
  -INDIGO-08031720192D

 28 28  0  0  0  0  0  0  0  0999 V2000
    5.5426    1.6000    0.0000 C   0  0  0  0  0  0  0  0  0  0  0  0
    6.9283    2.4000    0.0000 O   0  0  0  0  0  0  0  0  0  0  0  0
    8.3138    1.6000    0.0000 H   0  0  0  0  0  0  0  0  0  0  0  0
    4.1568    2.4000    0.0000 C   0  0  0  0  0  0  0  0  0  0  0  0
    4.1568    4.0000    0.0000 H   0  0  0  0  0  0  0  0  0  0  0  0
    2.7713    1.6000    0.0000 C   0  0  0  0  0  0  0  0  0  0  0  0
    1.3857    2.4000    0.0000 H   0  0  0  0  0  0  0  0  0  0  0  0
    2.7713    0.0000    0.0000 C   0  0  0  0  0  0  0  0  0  0  0  0
    1.3857   -0.8000    0.0000 C   0  0  0  0  0  0  0  0  0  0  0  0
    1.9979   -2.2782    0.0000 H   0  0  0  0  0  0  0  0  0  0  0  0
    0.7734   -2.2782    0.0000 H   0  0  0  0  0  0  0  0  0  0  0  0
    0.0000    0.0000    0.0000 C   0  0  0  0  0  0  0  0  0  0  0  0
   -0.6123    1.4782    0.0000 H   0  0  0  0  0  0  0  0  0  0  0  0
    0.6123    1.4782    0.0000 H   0  0  0  0  0  0  0  0  0  0  0  0
   -1.3855   -0.8000    0.0000 C   0  0  0  0  0  0  0  0  0  0  0  0
   -0.7734   -2.2782    0.0000 H   0  0  0  0  0  0  0  0  0  0  0  0
   -1.9979   -2.2782    0.0000 H   0  0  0  0  0  0  0  0  0  0  0  0
   -2.7713    0.0000    0.0000 C   0  0  0  0  0  0  0  0  0  0  0  0
   -3.3836    1.4782    0.0000 H   0  0  0  0  0  0  0  0  0  0  0  0
   -2.1590    1.4782    0.0000 H   0  0  0  0  0  0  0  0  0  0  0  0
   -4.1568   -0.8000    0.0000 C   0  0  0  0  0  0  0  0  0  0  0  0
   -5.5426   -1.6000    0.0000 H   0  0  0  0  0  0  0  0  0  0  0  0
   -5.5426    0.0000    0.0000 H   0  0  0  0  0  0  0  0  0  0  0  0
   -4.1568   -2.4000    0.0000 H   0  0  0  0  0  0  0  0  0  0  0  0
    4.1568   -0.8000    0.0000 C   0  0  0  0  0  0  0  0  0  0  0  0
    4.1568   -2.4000    0.0000 H   0  0  0  0  0  0  0  0  0  0  0  0
    5.5426    0.0000    0.0000 C   0  0  0  0  0  0  0  0  0  0  0  0
    6.9283   -0.8000    0.0000 H   0  0  0  0  0  0  0  0  0  0  0  0
  1  2  1  0  0  0  0
  2  3  1  0  0  0  0
  1  4  1  0  0  0  0
  4  5  1  0  0  0  0
  4  6  2  0  0  0  0
  6  7  1  0  0  0  0
  6  8  1  0  0  0  0
  8  9  1  0  0  0  0
  9 10  1  0  0  0  0
  9 11  1  0  0  0  0
  9 12  1  0  0  0  0
 12 13  1  0  0  0  0
 12 14  1  0  0  0  0
 12 15  1  0  0  0  0
 15 16  1  0  0  0  0
 15 17  1  0  0  0  0
 15 18  1  0  0  0  0
 18 19  1  0  0  0  0
 18 20  1  0  0  0  0
 18 21  1  0  0  0  0
 21 22  1  0  0  0  0
 21 23  1  0  0  0  0
 21 24  1  0  0  0  0
  8 25  2  0  0  0  0
 25 26  1  0  0  0  0
 25 27  1  0  0  0  0
 27  1  2  0  0  0  0
 27 28  1  0  0  0  0
M  END
> <ChemID>
105339

> <source_casrn>
14938-35-3

> <CAS>
14938-35-3

> <SMILES>
CCCCCc1ccc(O)cc1

> <NAME>
4-PENTYLPHENOL

> <preferred_name>
4-Pentylphenol

> <iupac>
4-pentylphenol

> <MPID>
24191

> <dsstox_substance_id>
DTXSID9044164

> <Canonical_QSARr>
CCCCCc1ccc(O)cc1

> <InChI_Code_QSARr>
InChI=1S/C11H16O/c1-2-3-4-5-10-6-8-11(12)9-7-10/h6-9,12H,2-5H2,1H3

> <InChI Key_QSARr>
ZNPSUQQXTRRSBM-UHFFFAOYSA-N

> <Salt_Solvent>
?

> <BP>
250.5

$$$$
105343
  -INDIGO-08031720192D

 11 10  0  0  0  0  0  0  0  0999 V2000
   -0.6123   -1.4782    0.0000 Cl  0  0  0  0  0  0  0  0  0  0  0  0
    0.0000    0.0000    0.0000 C   0  0  0  0  0  0  0  0  0  0  0  0
    0.6123   -1.4782    0.0000 H   0  0  0  0  0  0  0  0  0  0  0  0
   -1.3856    0.8000    0.0000 C   0  0  0  0  0  0  0  0  0  0  0  0
   -2.7713    1.6000    0.0000 H   0  0  0  0  0  0  0  0  0  0  0  0
   -2.7713    0.0000    0.0000 Cl  0  0  0  0  0  0  0  0  0  0  0  0
   -1.3856    2.4000    0.0000 Cl  0  0  0  0  0  0  0  0  0  0  0  0
    1.3856    0.8000    0.0000 C   0  0  0  0  0  0  0  0  0  0  0  0
    2.7713    1.6000    0.0000 H   0  0  0  0  0  0  0  0  0  0  0  0
    2.7713    0.0000    0.0000 Cl  0  0  0  0  0  0  0  0  0  0  0  0
    1.3856    2.4000    0.0000 Cl  0  0  0  0  0  0  0  0  0  0  0  0
  1  2  1  0  0  0  0
  2  3  1  0  0  0  0
  2  4  1  0  0  0  0
  4  5  1  0  0  0  0
  4  6  1  0  0  0  0
  4  7  1  0  0  0  0
  2  8  1  0  0  0  0
  8  9  1  0  0  0  0
  8 10  1  0  0  0  0
  8 11  1  0  0  0  0
M  END
> <ChemID>
105343

> <source_casrn>
15104-61-7

> <CAS>
15104-61-7

> <SMILES>
ClC(C(Cl)Cl)C(Cl)Cl

> <NAME>
1,1,2,3,3-PENTACHLOROPROPANE

> <preferred_name>
Propane, 1,1,2,3,3-pentachloro-

> <iupac>
1,1,2,3,3-PENTACHLOROPROPANE

> <MPID>
24195

> <dsstox_substance_id>
DTXSID20164698

> <Canonical_QSARr>
ClC(C(Cl)Cl)C(Cl)Cl

> <InChI_Code_QSARr>
InChI=1S/C3H3Cl5/c4-1(2(5)6)3(7)8/h1-3H

> <InChI Key_QSARr>
PANVCEBTPSTUEL-UHFFFAOYSA-N

> <Salt_Solvent>
?

> <BP>
199.0

$$$$
105348
  -INDIGO-08031720192D

 24 23  0  0  0  0  0  0  0  0999 V2000
   -2.7712    0.0000    0.0000 O   0  0  0  0  0  0  0  0  0  0  0  0
   -1.3857   -0.8000    0.0000 C   0  0  0  0  0  0  0  0  0  0  0  0
   -0.7734   -2.2782    0.0000 H   0  0  0  0  0  0  0  0  0  0  0  0
   -1.9979   -2.2782    0.0000 H   0  0  0  0  0  0  0  0  0  0  0  0
   -0.0000    0.0000    0.0000 C   0  0  0  0  0  0  0  0  0  0  0  0
    0.8000   -1.3856    0.0000 H   0  0  0  0  0  0  0  0  0  0  0  0
    1.3856    0.8000    0.0000 C   0  0  0  0  0  0  0  0  0  0  0  0
    2.7713    1.6000    0.0000 H   0  0  0  0  0  0  0  0  0  0  0  0
    2.7713    0.0000    0.0000 H   0  0  0  0  0  0  0  0  0  0  0  0
    1.3856    2.4000    0.0000 H   0  0  0  0  0  0  0  0  0  0  0  0
   -0.7999    1.3856    0.0000 C   0  0  0  0  0  0  0  0  0  0  0  0
   -1.6000    2.7713    0.0000 H   0  0  0  0  0  0  0  0  0  0  0  0
   -2.3999    1.3856    0.0000 H   0  0  0  0  0  0  0  0  0  0  0  0
   -0.0000    2.7713    0.0000 H   0  0  0  0  0  0  0  0  0  0  0  0
   -4.1569   -0.8000    0.0000 C   0  0  0  0  0  0  0  0  0  0  0  0
   -3.5447   -2.2782    0.0000 H   0  0  0  0  0  0  0  0  0  0  0  0
   -4.7692   -2.2782    0.0000 H   0  0  0  0  0  0  0  0  0  0  0  0
   -5.5425    0.0000    0.0000 C   0  0  0  0  0  0  0  0  0  0  0  0
   -6.1548    1.4782    0.0000 H   0  0  0  0  0  0  0  0  0  0  0  0
   -4.9302    1.4782    0.0000 H   0  0  0  0  0  0  0  0  0  0  0  0
   -6.9282   -0.8000    0.0000 C   0  0  0  0  0  0  0  0  0  0  0  0
   -8.3138   -1.6000    0.0000 H   0  0  0  0  0  0  0  0  0  0  0  0
   -8.3138    0.0000    0.0000 H   0  0  0  0  0  0  0  0  0  0  0  0
   -6.9282   -2.4000    0.0000 H   0  0  0  0  0  0  0  0  0  0  0  0
  1  2  1  0  0  0  0
  2  3  1  0  0  0  0
  2  4  1  0  0  0  0
  2  5  1  0  0  0  0
  5  6  1  0  0  0  0
  5  7  1  0  0  0  0
  7  8  1  0  0  0  0
  7  9  1  0  0  0  0
  7 10  1  0  0  0  0
  5 11  1  0  0  0  0
 11 12  1  0  0  0  0
 11 13  1  0  0  0  0
 11 14  1  0  0  0  0
  1 15  1  0  0  0  0
 15 16  1  0  0  0  0
 15 17  1  0  0  0  0
 15 18  1  0  0  0  0
 18 19  1  0  0  0  0
 18 20  1  0  0  0  0
 18 21  1  0  0  0  0
 21 22  1  0  0  0  0
 21 23  1  0  0  0  0
 21 24  1  0  0  0  0
M  END
> <ChemID>
105348

> <source_casrn>
15268-49-2

> <CAS>
15268-49-2

> <SMILES>
CCCOCC(C)C

> <NAME>
PROPANE, 2-METHYL-1-PROPOXY-

> <preferred_name>
Propane, 2-methyl-1-propoxy-

> <iupac>
2-methyl-1-propoxypropane

> <MPID>
24199

> <dsstox_substance_id>
DTXSID20165100

> <Canonical_QSARr>
CCCOCC(C)C

> <InChI_Code_QSARr>
InChI=1S/C7H16O/c1-4-5-8-6-7(2)3/h7H,4-6H2,1-3H3

> <InChI Key_QSARr>
NKBWHRMIYKMDDN-UHFFFAOYSA-N

> <Salt_Solvent>
?

> <BP>
107.0

$$$$
105353
  -INDIGO-08031720192D

 26 25  0  0  0  0  0  0  0  0999 V2000
    0.0001    0.0000    0.0000 As  0  0  0  0  0  0  0  0  0  0  0  0
    1.6001    0.0000    0.0000 O   0  0  0  0  0  0  0  0  0  0  0  0
    2.4000   -1.3856    0.0000 C   0  0  0  0  0  0  0  0  0  0  0  0
    1.1306   -2.3596    0.0000 H   0  0  0  0  0  0  0  0  0  0  0  0
    2.1912   -2.9720    0.0000 H   0  0  0  0  0  0  0  0  0  0  0  0
    4.0000   -1.3856    0.0000 C   0  0  0  0  0  0  0  0  0  0  0  0
    5.6000   -1.3856    0.0000 H   0  0  0  0  0  0  0  0  0  0  0  0
    4.8000   -2.7712    0.0000 H   0  0  0  0  0  0  0  0  0  0  0  0
    4.8000    0.0000    0.0000 H   0  0  0  0  0  0  0  0  0  0  0  0
    0.8001    1.3857    0.0000 O   0  0  0  0  0  0  0  0  0  0  0  0
    0.0001    2.7713    0.0000 C   0  0  0  0  0  0  0  0  0  0  0  0
   -1.4782    3.3836    0.0000 H   0  0  0  0  0  0  0  0  0  0  0  0
   -1.4782    2.1590    0.0000 H   0  0  0  0  0  0  0  0  0  0  0  0
    0.8001    4.1569    0.0000 C   0  0  0  0  0  0  0  0  0  0  0  0
    1.6001    5.5426    0.0000 H   0  0  0  0  0  0  0  0  0  0  0  0
    0.0001    5.5426    0.0000 H   0  0  0  0  0  0  0  0  0  0  0  0
    2.4000    4.1569    0.0000 H   0  0  0  0  0  0  0  0  0  0  0  0
   -1.6001    0.0000    0.0000 O   0  0  0  0  0  0  0  0  0  0  0  0
   -2.4000   -1.3856    0.0000 C   0  0  0  0  0  0  0  0  0  0  0  0
   -2.1912   -2.9720    0.0000 H   0  0  0  0  0  0  0  0  0  0  0  0
   -1.1306   -2.3596    0.0000 H   0  0  0  0  0  0  0  0  0  0  0  0
   -4.0000   -1.3856    0.0000 C   0  0  0  0  0  0  0  0  0  0  0  0
   -5.6000   -1.3856    0.0000 H   0  0  0  0  0  0  0  0  0  0  0  0
   -4.8000   -2.7712    0.0000 H   0  0  0  0  0  0  0  0  0  0  0  0
   -4.8000    0.0000    0.0000 H   0  0  0  0  0  0  0  0  0  0  0  0
    0.8001   -1.3856    0.0000 O   0  0  0  0  0  0  0  0  0  0  0  0
  1  2  1  0  0  0  0
  2  3  1  0  0  0  0
  3  4  1  0  0  0  0
  3  5  1  0  0  0  0
  3  6  1  0  0  0  0
  6  7  1  0  0  0  0
  6  8  1  0  0  0  0
  6  9  1  0  0  0  0
  1 10  1  0  0  0  0
 10 11  1  0  0  0  0
 11 12  1  0  0  0  0
 11 13  1  0  0  0  0
 11 14  1  0  0  0  0
 14 15  1  0  0  0  0
 14 16  1  0  0  0  0
 14 17  1  0  0  0  0
  1 18  1  0  0  0  0
 18 19  1  0  0  0  0
 19 20  1  0  0  0  0
 19 21  1  0  0  0  0
 19 22  1  0  0  0  0
 22 23  1  0  0  0  0
 22 24  1  0  0  0  0
 22 25  1  0  0  0  0
  1 26  2  0  0  0  0
M  END
> <ChemID>
105353

> <source_casrn>
15606-95-8

> <CAS>
15606-95-8

> <SMILES>
CCO[As](=O)(OCC)OCC

> <NAME>
Arsenic acid, triethyl ester

> <preferred_name>
Triethyl arsenate

> <iupac>
1-diethoxyarsoryloxyethane

> <MPID>
24203

> <dsstox_substance_id>
DTXSID20166036

> <Canonical_QSARr>
CCO[As](=O)(OCC)OCC

> <InChI_Code_QSARr>
InChI=1S/C6H15AsO4/c1-4-9-7(8,10-5-2)11-6-3/h4-6H2,1-3H3

> <InChI Key_QSARr>
MGRFDZWQSJNJQP-UHFFFAOYSA-N

> <Salt_Solvent>
?

> <BP>
236.5

$$$$
105357
  -INDIGO-08031720192D

 22 22  0  0  0  0  0  0  0  0999 V2000
   -2.4000    1.3857    0.0000 N   0  0  0  0  0  0  0  0  0  0  0  0
   -1.6000    0.0000    0.0000 C   0  0  0  0  0  0  0  0  0  0  0  0
   -2.4000   -1.3856    0.0000 C   0  0  0  0  0  0  0  0  0  0  0  0
   -1.1307   -2.3596    0.0000 H   0  0  0  0  0  0  0  0  0  0  0  0
   -2.1911   -2.9720    0.0000 H   0  0  0  0  0  0  0  0  0  0  0  0
   -3.9999   -1.3856    0.0000 C   0  0  0  0  0  0  0  0  0  0  0  0
   -5.6000   -1.3856    0.0000 H   0  0  0  0  0  0  0  0  0  0  0  0
   -4.8000   -2.7713    0.0000 H   0  0  0  0  0  0  0  0  0  0  0  0
   -4.8000    0.0000    0.0000 H   0  0  0  0  0  0  0  0  0  0  0  0
    0.0000    0.0000    0.0000 C   0  0  0  0  0  0  0  0  0  0  0  0
    1.0284   -1.2257    0.0000 C   0  0  0  0  0  0  0  0  0  0  0  0
    1.0982   -2.8241    0.0000 H   0  0  0  0  0  0  0  0  0  0  0  0
   -0.0525   -2.4053    0.0000 H   0  0  0  0  0  0  0  0  0  0  0  0
    2.6041   -0.9478    0.0000 C   0  0  0  0  0  0  0  0  0  0  0  0
    4.1798   -0.6700    0.0000 H   0  0  0  0  0  0  0  0  0  0  0  0
    3.6326   -2.1735    0.0000 H   0  0  0  0  0  0  0  0  0  0  0  0
    3.1513    0.5557    0.0000 H   0  0  0  0  0  0  0  0  0  0  0  0
    0.8001    1.3857    0.0000 N   0  0  0  0  0  0  0  0  0  0  0  0
    0.0000    2.7713    0.0000 C   0  0  0  0  0  0  0  0  0  0  0  0
    0.8001    4.1569    0.0000 H   0  0  0  0  0  0  0  0  0  0  0  0
   -1.6000    2.7713    0.0000 C   0  0  0  0  0  0  0  0  0  0  0  0
   -2.4000    4.1569    0.0000 H   0  0  0  0  0  0  0  0  0  0  0  0
  1  2  1  0  0  0  0
  2  3  1  0  0  0  0
  3  4  1  0  0  0  0
  3  5  1  0  0  0  0
  3  6  1  0  0  0  0
  6  7  1  0  0  0  0
  6  8  1  0  0  0  0
  6  9  1  0  0  0  0
  2 10  2  0  0  0  0
 10 11  1  0  0  0  0
 11 12  1  0  0  0  0
 11 13  1  0  0  0  0
 11 14  1  0  0  0  0
 14 15  1  0  0  0  0
 14 16  1  0  0  0  0
 14 17  1  0  0  0  0
 10 18  1  0  0  0  0
 18 19  2  0  0  0  0
 19 20  1  0  0  0  0
 19 21  1  0  0  0  0
 21  1  2  0  0  0  0
 21 22  1  0  0  0  0
M  END
> <ChemID>
105357

> <source_casrn>
15707-24-1

> <CAS>
15707-24-1

> <SMILES>
CCc1[n]cc[n]c1CC

> <NAME>
PYRAZINE, 2,3-DIETHYL-

> <preferred_name>
2,3-Diethylpyrazine

> <iupac>
2,3-diethylpyrazine

> <MPID>
24207

> <dsstox_substance_id>
DTXSID6047101

> <Canonical_QSARr>
CCc1[n]cc[n]c1CC

> <InChI_Code_QSARr>
InChI=1S/C8H12N2/c1-3-7-8(4-2)10-6-5-9-7/h5-6H,3-4H2,1-2H3

> <InChI Key_QSARr>
GZXXANJCCWGCSV-UHFFFAOYSA-N

> <Salt_Solvent>
?

> <BP>
181.0

$$$$
105361
  -INDIGO-08031720192D

 32 31  0  0  0  0  0  0  0  0999 V2000
    3.6987   -2.0592    0.0000 C   0  0  0  0  0  0  0  0  0  0  0  0
    5.2743   -2.3370    0.0000 H   0  0  0  0  0  0  0  0  0  0  0  0
    4.2459   -3.5627    0.0000 H   0  0  0  0  0  0  0  0  0  0  0  0
    4.7271   -0.8335    0.0000 H   0  0  0  0  0  0  0  0  0  0  0  0
    2.1229   -1.7814    0.0000 C   0  0  0  0  0  0  0  0  0  0  0  0
    0.7036   -2.5202    0.0000 H   0  0  0  0  0  0  0  0  0  0  0  0
    1.6418   -3.3073    0.0000 H   0  0  0  0  0  0  0  0  0  0  0  0
    1.5758   -0.2779    0.0000 C   0  0  0  0  0  0  0  0  0  0  0  0
    2.9948    0.4609    0.0000 H   0  0  0  0  0  0  0  0  0  0  0  0
    2.0568    1.2481    0.0000 H   0  0  0  0  0  0  0  0  0  0  0  0
   -0.0000    0.0000    0.0000 C   0  0  0  0  0  0  0  0  0  0  0  0
   -0.0000   -1.6000    0.0000 H   0  0  0  0  0  0  0  0  0  0  0  0
   -1.5756   -0.2779    0.0000 C   0  0  0  0  0  0  0  0  0  0  0  0
   -0.9634   -1.7560    0.0000 H   0  0  0  0  0  0  0  0  0  0  0  0
   -2.1879   -1.7560    0.0000 H   0  0  0  0  0  0  0  0  0  0  0  0
   -3.0792    0.2694    0.0000 C   0  0  0  0  0  0  0  0  0  0  0  0
   -3.9389    1.6189    0.0000 H   0  0  0  0  0  0  0  0  0  0  0  0
   -2.7330    1.8314    0.0000 H   0  0  0  0  0  0  0  0  0  0  0  0
   -4.3049   -0.7591    0.0000 C   0  0  0  0  0  0  0  0  0  0  0  0
   -3.4453   -2.1085    0.0000 H   0  0  0  0  0  0  0  0  0  0  0  0
   -4.6512   -2.3211    0.0000 H   0  0  0  0  0  0  0  0  0  0  0  0
   -5.8083   -0.2118    0.0000 C   0  0  0  0  0  0  0  0  0  0  0  0
   -7.3119    0.3354    0.0000 H   0  0  0  0  0  0  0  0  0  0  0  0
   -7.0340   -1.2403    0.0000 H   0  0  0  0  0  0  0  0  0  0  0  0
   -6.0862    1.3638    0.0000 H   0  0  0  0  0  0  0  0  0  0  0  0
   -0.0000    1.6000    0.0000 C   0  0  0  0  0  0  0  0  0  0  0  0
   -0.9739    2.8693    0.0000 H   0  0  0  0  0  0  0  0  0  0  0  0
   -1.5864    1.8088    0.0000 H   0  0  0  0  0  0  0  0  0  0  0  0
    1.3856    2.4000    0.0000 C   0  0  0  0  0  0  0  0  0  0  0  0
    1.3856    4.0000    0.0000 H   0  0  0  0  0  0  0  0  0  0  0  0
    2.7713    3.2001    0.0000 H   0  0  0  0  0  0  0  0  0  0  0  0
   -0.0000    3.2001    0.0000 H   0  0  0  0  0  0  0  0  0  0  0  0
  1  2  1  0  0  0  0
  1  3  1  0  0  0  0
  1  4  1  0  0  0  0
  1  5  1  0  0  0  0
  5  6  1  0  0  0  0
  5  7  1  0  0  0  0
  5  8  1  0  0  0  0
  8  9  1  0  0  0  0
  8 10  1  0  0  0  0
  8 11  1  0  0  0  0
 11 12  1  0  0  0  0
 11 13  1  0  0  0  0
 13 14  1  0  0  0  0
 13 15  1  0  0  0  0
 13 16  1  0  0  0  0
 16 17  1  0  0  0  0
 16 18  1  0  0  0  0
 16 19  1  0  0  0  0
 19 20  1  0  0  0  0
 19 21  1  0  0  0  0
 19 22  1  0  0  0  0
 22 23  1  0  0  0  0
 22 24  1  0  0  0  0
 22 25  1  0  0  0  0
 11 26  1  0  0  0  0
 26 27  1  0  0  0  0
 26 28  1  0  0  0  0
 26 29  1  0  0  0  0
 29 30  1  0  0  0  0
 29 31  1  0  0  0  0
 29 32  1  0  0  0  0
M  END
> <ChemID>
105361

> <source_casrn>
15869-86-0

> <CAS>
15869-86-0

> <SMILES>
CCC(CCC)CCCC

> <NAME>
OCTANE, 4-ETHYL-

> <preferred_name>


> <iupac>


> <MPID>
24211

> <dsstox_substance_id>
DTXSID10871243

> <Canonical_QSARr>
CCC(CCC)CCCC

> <InChI_Code_QSARr>
InChI=1S/C10H22/c1-4-7-9-10(6-3)8-5-2/h10H,4-9H2,1-3H3

> <InChI Key_QSARr>
NRJUFUBKIFIKFI-UHFFFAOYSA-N

> <Salt_Solvent>
?

> <BP>
163.7

$$$$
105365
  -INDIGO-08031720192D

 32 31  0  0  0  0  0  0  0  0999 V2000
    4.8000   -2.7712    0.0000 C   0  0  0  0  0  0  0  0  0  0  0  0
    5.6000   -4.1569    0.0000 H   0  0  0  0  0  0  0  0  0  0  0  0
    6.4000   -2.7712    0.0000 H   0  0  0  0  0  0  0  0  0  0  0  0
    4.0000   -4.1569    0.0000 H   0  0  0  0  0  0  0  0  0  0  0  0
    3.2000   -2.7712    0.0000 C   0  0  0  0  0  0  0  0  0  0  0  0
    2.9911   -4.3576    0.0000 H   0  0  0  0  0  0  0  0  0  0  0  0
    1.9307   -3.7454    0.0000 H   0  0  0  0  0  0  0  0  0  0  0  0
    2.4000   -1.3856    0.0000 C   0  0  0  0  0  0  0  0  0  0  0  0
    1.0144   -2.1856    0.0000 H   0  0  0  0  0  0  0  0  0  0  0  0
    1.6000   -0.0001    0.0000 C   0  0  0  0  0  0  0  0  0  0  0  0
    1.8089    1.5863    0.0000 H   0  0  0  0  0  0  0  0  0  0  0  0
    2.8693    0.9741    0.0000 H   0  0  0  0  0  0  0  0  0  0  0  0
    0.0000   -0.0001    0.0000 C   0  0  0  0  0  0  0  0  0  0  0  0
    0.0000   -1.6000    0.0000 H   0  0  0  0  0  0  0  0  0  0  0  0
   -1.6000   -0.0001    0.0000 C   0  0  0  0  0  0  0  0  0  0  0  0
   -1.8089    1.5863    0.0000 H   0  0  0  0  0  0  0  0  0  0  0  0
   -2.8693    0.9741    0.0000 H   0  0  0  0  0  0  0  0  0  0  0  0
   -2.4000   -1.3856    0.0000 C   0  0  0  0  0  0  0  0  0  0  0  0
   -2.1911   -2.9720    0.0000 H   0  0  0  0  0  0  0  0  0  0  0  0
   -1.1307   -2.3596    0.0000 H   0  0  0  0  0  0  0  0  0  0  0  0
   -4.0000   -1.3856    0.0000 C   0  0  0  0  0  0  0  0  0  0  0  0
   -5.6000   -1.3856    0.0000 H   0  0  0  0  0  0  0  0  0  0  0  0
   -4.8000   -2.7712    0.0000 H   0  0  0  0  0  0  0  0  0  0  0  0
   -4.8000   -0.0001    0.0000 H   0  0  0  0  0  0  0  0  0  0  0  0
    0.0000    1.6000    0.0000 C   0  0  0  0  0  0  0  0  0  0  0  0
    0.0000    3.2000    0.0000 H   0  0  0  0  0  0  0  0  0  0  0  0
   -1.2257    2.6285    0.0000 H   0  0  0  0  0  0  0  0  0  0  0  0
    1.2257    2.6285    0.0000 H   0  0  0  0  0  0  0  0  0  0  0  0
    3.7856   -0.5857    0.0000 C   0  0  0  0  0  0  0  0  0  0  0  0
    5.1713    0.2143    0.0000 H   0  0  0  0  0  0  0  0  0  0  0  0
    4.0635    0.9901    0.0000 H   0  0  0  0  0  0  0  0  0  0  0  0
    5.1713   -1.3856    0.0000 H   0  0  0  0  0  0  0  0  0  0  0  0
  1  2  1  0  0  0  0
  1  3  1  0  0  0  0
  1  4  1  0  0  0  0
  1  5  1  0  0  0  0
  5  6  1  0  0  0  0
  5  7  1  0  0  0  0
  5  8  1  0  0  0  0
  8  9  1  0  0  0  0
  8 10  1  0  0  0  0
 10 11  1  0  0  0  0
 10 12  1  0  0  0  0
 10 13  1  0  0  0  0
 13 14  1  0  0  0  0
 13 15  1  0  0  0  0
 15 16  1  0  0  0  0
 15 17  1  0  0  0  0
 15 18  1  0  0  0  0
 18 19  1  0  0  0  0
 18 20  1  0  0  0  0
 18 21  1  0  0  0  0
 21 22  1  0  0  0  0
 21 23  1  0  0  0  0
 21 24  1  0  0  0  0
 13 25  1  0  0  0  0
 25 26  1  0  0  0  0
 25 27  1  0  0  0  0
 25 28  1  0  0  0  0
  8 29  1  0  0  0  0
 29 30  1  0  0  0  0
 29 31  1  0  0  0  0
 29 32  1  0  0  0  0
M  END
> <ChemID>
105365

> <source_casrn>
15869-93-9

> <CAS>
15869-93-9

> <SMILES>
CC(CCC)CC(C)CC

> <NAME>
OCTANE, 3,5-DIMETHYL-

> <preferred_name>


> <iupac>


> <MPID>
24215

> <dsstox_substance_id>
DTXSID90871246

> <Canonical_QSARr>
CC(CCC)CC(C)CC

> <InChI_Code_QSARr>
InChI=1S/C10H22/c1-5-7-10(4)8-9(3)6-2/h9-10H,5-8H2,1-4H3

> <InChI Key_QSARr>
VRHRGVJOUHJULC-UHFFFAOYSA-N

> <Salt_Solvent>
?

> <BP>
159.4

$$$$
105369
  -INDIGO-08031720192D

 24 23  0  0  0  0  0  0  0  0999 V2000
    1.3856    0.8000    0.0000 C   0  0  0  0  0  0  0  0  0  0  0  0
    1.9979    2.2782    0.0000 H   0  0  0  0  0  0  0  0  0  0  0  0
    0.7734    2.2782    0.0000 H   0  0  0  0  0  0  0  0  0  0  0  0
    0.0001    0.0000    0.0000 C   0  0  0  0  0  0  0  0  0  0  0  0
   -0.6122   -1.4782    0.0000 H   0  0  0  0  0  0  0  0  0  0  0  0
    0.6122   -1.4782    0.0000 H   0  0  0  0  0  0  0  0  0  0  0  0
   -1.3856    0.8000    0.0000 C   0  0  0  0  0  0  0  0  0  0  0  0
   -0.7734    2.2782    0.0000 H   0  0  0  0  0  0  0  0  0  0  0  0
   -1.9979    2.2782    0.0000 H   0  0  0  0  0  0  0  0  0  0  0  0
   -2.7712    0.0000    0.0000 C   0  0  0  0  0  0  0  0  0  0  0  0
   -3.3836   -1.4782    0.0000 H   0  0  0  0  0  0  0  0  0  0  0  0
   -2.1589   -1.4782    0.0000 H   0  0  0  0  0  0  0  0  0  0  0  0
   -4.1569    0.8000    0.0000 C   0  0  0  0  0  0  0  0  0  0  0  0
   -5.5426    1.6000    0.0000 H   0  0  0  0  0  0  0  0  0  0  0  0
   -5.5426    0.0000    0.0000 H   0  0  0  0  0  0  0  0  0  0  0  0
   -4.1569    2.4000    0.0000 H   0  0  0  0  0  0  0  0  0  0  0  0
    2.7712    0.0000    0.0000 C   0  0  0  0  0  0  0  0  0  0  0  0
    4.1569    0.8000    0.0000 C   0  0  0  0  0  0  0  0  0  0  0  0
    5.5426    1.6000    0.0000 H   0  0  0  0  0  0  0  0  0  0  0  0
    5.5426   -0.0000    0.0000 H   0  0  0  0  0  0  0  0  0  0  0  0
    4.1569    2.4000    0.0000 H   0  0  0  0  0  0  0  0  0  0  0  0
    2.7712   -1.6000    0.0000 C   0  0  0  0  0  0  0  0  0  0  0  0
    4.1569   -2.4000    0.0000 H   0  0  0  0  0  0  0  0  0  0  0  0
    1.3856   -2.4000    0.0000 H   0  0  0  0  0  0  0  0  0  0  0  0
  1  2  1  0  0  0  0
  1  3  1  0  0  0  0
  1  4  1  0  0  0  0
  4  5  1  0  0  0  0
  4  6  1  0  0  0  0
  4  7  1  0  0  0  0
  7  8  1  0  0  0  0
  7  9  1  0  0  0  0
  7 10  1  0  0  0  0
 10 11  1  0  0  0  0
 10 12  1  0  0  0  0
 10 13  1  0  0  0  0
 13 14  1  0  0  0  0
 13 15  1  0  0  0  0
 13 16  1  0  0  0  0
  1 17  1  0  0  0  0
 17 18  1  0  0  0  0
 18 19  1  0  0  0  0
 18 20  1  0  0  0  0
 18 21  1  0  0  0  0
 17 22  2  0  0  0  0
 22 23  1  0  0  0  0
 22 24  1  0  0  0  0
M  END
> <ChemID>
105369

> <source_casrn>
15870-10-7

> <CAS>
15870-10-7

> <SMILES>
CCCCCC(C)=C

> <NAME>
2-METHYL-1-HEPTENE

> <preferred_name>
1-Heptene, 2-methyl-

> <iupac>
2-Methylhept-1-ene

> <MPID>
24219

> <dsstox_substance_id>
DTXSID0074009

> <Canonical_QSARr>
CCCCCC(C)=C

> <InChI_Code_QSARr>
InChI=1S/C8H16/c1-4-5-6-7-8(2)3/h2,4-7H2,1,3H3

> <InChI Key_QSARr>
RCBGGJURENJHKV-UHFFFAOYSA-N

> <Salt_Solvent>
?

> <BP>
119.3

$$$$
105374
  -INDIGO-08031720192D

 15 15  0  0  0  0  0  0  0  0999 V2000
   -2.2159    1.7943    0.0000 Cl  0  0  0  0  0  0  0  0  0  0  0  0
   -1.5650    0.3326    0.0000 C   0  0  0  0  0  0  0  0  0  0  0  0
   -0.0001    0.0000    0.0000 C   0  0  0  0  0  0  0  0  0  0  0  0
    1.1890    1.0706    0.0000 C   0  0  0  0  0  0  0  0  0  0  0  0
    2.3780    2.1413    0.0000 H   0  0  0  0  0  0  0  0  0  0  0  0
    2.7107    0.5762    0.0000 H   0  0  0  0  0  0  0  0  0  0  0  0
    0.8563    2.6356    0.0000 H   0  0  0  0  0  0  0  0  0  0  0  0
    0.1673   -1.5912    0.0000 N   0  0  0  0  0  0  0  0  0  0  0  0
    1.5529   -2.3913    0.0000 H   0  0  0  0  0  0  0  0  0  0  0  0
   -1.2945   -2.2420    0.0000 N   0  0  0  0  0  0  0  0  0  0  0  0
   -2.3651   -1.0530    0.0000 C   0  0  0  0  0  0  0  0  0  0  0  0
   -3.9562   -1.2202    0.0000 C   0  0  0  0  0  0  0  0  0  0  0  0
   -5.5475   -1.3875    0.0000 H   0  0  0  0  0  0  0  0  0  0  0  0
   -4.6071   -2.6819    0.0000 H   0  0  0  0  0  0  0  0  0  0  0  0
   -4.8968    0.0742    0.0000 H   0  0  0  0  0  0  0  0  0  0  0  0
  1  2  1  0  0  0  0
  2  3  2  0  0  0  0
  3  4  1  0  0  0  0
  4  5  1  0  0  0  0
  4  6  1  0  0  0  0
  4  7  1  0  0  0  0
  3  8  1  0  0  0  0
  8  9  1  0  0  0  0
  8 10  1  0  0  0  0
 10 11  2  0  0  0  0
 11  2  1  0  0  0  0
 11 12  1  0  0  0  0
 12 13  1  0  0  0  0
 12 14  1  0  0  0  0
 12 15  1  0  0  0  0
M  END
> <ChemID>
105374

> <source_casrn>
15953-73-8

> <CAS>
15953-73-8

> <SMILES>
Cc1[n][nH]c(C)c1Cl

> <NAME>
4-Chloro-3,5-dimethyl-1H-pyrazole

> <preferred_name>
4-chloro-3,5-dimethyl-1H-pyrazole

> <iupac>
C5H7ClN2

> <MPID>
24223

> <dsstox_substance_id>
DTXSID20350099

> <Canonical_QSARr>
Cc1[n][nH]c(C)c1Cl

> <InChI_Code_QSARr>
InChI=1S/C5H7ClN2/c1-3-5(6)4(2)8-7-3/h1-2H3,(H,7,8)

> <InChI Key_QSARr>
JGTUBTJLRQIMAB-UHFFFAOYSA-N

> <Salt_Solvent>
?

> <BP>
221.0

$$$$
105378
  -INDIGO-08031720192D

 41 40  0  0  0  0  0  0  0  0999 V2000
    0.0000    0.0000    0.0000 Si  0  0  0  0  0  0  0  0  0  0  0  0
    0.7999   -1.3856    0.0000 O   0  0  0  0  0  0  0  0  0  0  0  0
    2.4001   -1.3856    0.0000 Si  0  0  0  0  0  0  0  0  0  0  0  0
    3.2000    0.0000    0.0000 H   0  0  0  0  0  0  0  0  0  0  0  0
    4.0000   -1.3856    0.0000 O   0  0  0  0  0  0  0  0  0  0  0  0
    4.7999    0.0000    0.0000 Si  0  0  0  0  0  0  0  0  0  0  0  0
    5.6000   -1.3856    0.0000 H   0  0  0  0  0  0  0  0  0  0  0  0
    6.3757    0.2778    0.0000 O   0  0  0  0  0  0  0  0  0  0  0  0
    7.6014   -0.7506    0.0000 Si  0  0  0  0  0  0  0  0  0  0  0  0
    8.6298    0.4751    0.0000 C   0  0  0  0  0  0  0  0  0  0  0  0
    9.6582    1.7007    0.0000 H   0  0  0  0  0  0  0  0  0  0  0  0
   10.2056    0.1972    0.0000 H   0  0  0  0  0  0  0  0  0  0  0  0
    8.0826    1.9785    0.0000 H   0  0  0  0  0  0  0  0  0  0  0  0
    8.8271   -1.7791    0.0000 C   0  0  0  0  0  0  0  0  0  0  0  0
   10.0527   -2.8075    0.0000 H   0  0  0  0  0  0  0  0  0  0  0  0
   10.3305   -1.2318    0.0000 H   0  0  0  0  0  0  0  0  0  0  0  0
    8.5492   -3.3547    0.0000 H   0  0  0  0  0  0  0  0  0  0  0  0
    6.5728   -1.9763    0.0000 C   0  0  0  0  0  0  0  0  0  0  0  0
    7.1202   -3.4798    0.0000 H   0  0  0  0  0  0  0  0  0  0  0  0
    8.1486   -2.2541    0.0000 H   0  0  0  0  0  0  0  0  0  0  0  0
    6.0256   -0.4728    0.0000 H   0  0  0  0  0  0  0  0  0  0  0  0
    5.6000    1.3856    0.0000 C   0  0  0  0  0  0  0  0  0  0  0  0
    6.4001    2.7713    0.0000 H   0  0  0  0  0  0  0  0  0  0  0  0
    4.7999    2.7713    0.0000 H   0  0  0  0  0  0  0  0  0  0  0  0
    4.0000    1.3856    0.0000 H   0  0  0  0  0  0  0  0  0  0  0  0
    3.2000   -2.7713    0.0000 C   0  0  0  0  0  0  0  0  0  0  0  0
    2.4001   -4.1569    0.0000 H   0  0  0  0  0  0  0  0  0  0  0  0
    4.0000   -4.1569    0.0000 H   0  0  0  0  0  0  0  0  0  0  0  0
    1.6000   -2.7713    0.0000 H   0  0  0  0  0  0  0  0  0  0  0  0
   -1.0284    1.2257    0.0000 C   0  0  0  0  0  0  0  0  0  0  0  0
   -2.0570    2.4514    0.0000 H   0  0  0  0  0  0  0  0  0  0  0  0
   -2.6041    0.9479    0.0000 H   0  0  0  0  0  0  0  0  0  0  0  0
   -0.4812    2.7292    0.0000 H   0  0  0  0  0  0  0  0  0  0  0  0
    1.3857    0.8000    0.0000 C   0  0  0  0  0  0  0  0  0  0  0  0
    2.7713    1.6000    0.0000 H   0  0  0  0  0  0  0  0  0  0  0  0
    1.3857    2.4000    0.0000 H   0  0  0  0  0  0  0  0  0  0  0  0
    0.0000    1.6000    0.0000 H   0  0  0  0  0  0  0  0  0  0  0  0
   -1.3856   -0.8000    0.0000 C   0  0  0  0  0  0  0  0  0  0  0  0
   -2.7713   -1.6000    0.0000 H   0  0  0  0  0  0  0  0  0  0  0  0
   -1.3856   -2.4000    0.0000 H   0  0  0  0  0  0  0  0  0  0  0  0
   -2.7713    0.0000    0.0000 H   0  0  0  0  0  0  0  0  0  0  0  0
  1  2  1  0  0  0  0
  2  3  1  0  0  0  0
  3  4  1  0  0  0  0
  3  5  1  0  0  0  0
  5  6  1  0  0  0  0
  6  7  1  0  0  0  0
  6  8  1  0  0  0  0
  8  9  1  0  0  0  0
  9 10  1  0  0  0  0
 10 11  1  0  0  0  0
 10 12  1  0  0  0  0
 10 13  1  0  0  0  0
  9 14  1  0  0  0  0
 14 15  1  0  0  0  0
 14 16  1  0  0  0  0
 14 17  1  0  0  0  0
  9 18  1  0  0  0  0
 18 19  1  0  0  0  0
 18 20  1  0  0  0  0
 18 21  1  0  0  0  0
  6 22  1  0  0  0  0
 22 23  1  0  0  0  0
 22 24  1  0  0  0  0
 22 25  1  0  0  0  0
  3 26  1  0  0  0  0
 26 27  1  0  0  0  0
 26 28  1  0  0  0  0
 26 29  1  0  0  0  0
  1 30  1  0  0  0  0
 30 31  1  0  0  0  0
 30 32  1  0  0  0  0
 30 33  1  0  0  0  0
  1 34  1  0  0  0  0
 34 35  1  0  0  0  0
 34 36  1  0  0  0  0
 34 37  1  0  0  0  0
  1 38  1  0  0  0  0
 38 39  1  0  0  0  0
 38 40  1  0  0  0  0
 38 41  1  0  0  0  0
M  END
> <ChemID>
105378

> <source_casrn>
16066-09-4

> <CAS>
NOCAS_871252

> <SMILES>
C[Si](C)(C)O[SiH](C)O[SiH](C)O[Si](C)(C)C

> <NAME>
Tetrasiloxane, 1,1,1,3,5,7,7,7-octamethyl-

> <preferred_name>


> <iupac>


> <MPID>
24227

> <dsstox_substance_id>
DTXSID00871252

> <Canonical_QSARr>
C[Si](C)(C)O[SiH](C)O[SiH](C)O[Si](C)(C)C

> <InChI_Code_QSARr>
InChI=1S/C8H26O3Si4/c1-12(10-14(3,4)5)9-13(2)11-15(6,7)8/h12-13H,1-8H3

> <InChI Key_QSARr>
LBPUHXCOWXUVCE-UHFFFAOYSA-N

> <Salt_Solvent>
?

> <BP>
170.0

$$$$
105384
  -INDIGO-08031720192D

 38 38  0  0  0  0  0  0  0  0999 V2000
    9.6995    2.4000    0.0000 N   0  0  0  0  0  0  0  0  0  0  0  0
   11.0851    1.6000    0.0000 H   0  0  0  0  0  0  0  0  0  0  0  0
    9.6995    4.0000    0.0000 H   0  0  0  0  0  0  0  0  0  0  0  0
    8.3139    1.6000    0.0000 C   0  0  0  0  0  0  0  0  0  0  0  0
    6.9283    2.4000    0.0000 C   0  0  0  0  0  0  0  0  0  0  0  0
    6.9283    4.0000    0.0000 H   0  0  0  0  0  0  0  0  0  0  0  0
    5.5425    1.6000    0.0000 C   0  0  0  0  0  0  0  0  0  0  0  0
    4.1569    2.4000    0.0000 H   0  0  0  0  0  0  0  0  0  0  0  0
    5.5425    0.0000    0.0000 C   0  0  0  0  0  0  0  0  0  0  0  0
    4.1569   -0.8000    0.0000 C   0  0  0  0  0  0  0  0  0  0  0  0
    4.7693   -2.2782    0.0000 H   0  0  0  0  0  0  0  0  0  0  0  0
    3.5447   -2.2782    0.0000 H   0  0  0  0  0  0  0  0  0  0  0  0
    2.7713    0.0000    0.0000 C   0  0  0  0  0  0  0  0  0  0  0  0
    2.1589    1.4782    0.0000 H   0  0  0  0  0  0  0  0  0  0  0  0
    3.3837    1.4782    0.0000 H   0  0  0  0  0  0  0  0  0  0  0  0
    1.3857   -0.8000    0.0000 C   0  0  0  0  0  0  0  0  0  0  0  0
    1.9981   -2.2782    0.0000 H   0  0  0  0  0  0  0  0  0  0  0  0
    0.7733   -2.2782    0.0000 H   0  0  0  0  0  0  0  0  0  0  0  0
    0.0001    0.0000    0.0000 C   0  0  0  0  0  0  0  0  0  0  0  0
   -0.6123    1.4782    0.0000 H   0  0  0  0  0  0  0  0  0  0  0  0
    0.6122    1.4782    0.0000 H   0  0  0  0  0  0  0  0  0  0  0  0
   -1.3855   -0.8000    0.0000 C   0  0  0  0  0  0  0  0  0  0  0  0
   -0.7734   -2.2782    0.0000 H   0  0  0  0  0  0  0  0  0  0  0  0
   -1.9979   -2.2782    0.0000 H   0  0  0  0  0  0  0  0  0  0  0  0
   -2.7714    0.0000    0.0000 C   0  0  0  0  0  0  0  0  0  0  0  0
   -3.3835    1.4782    0.0000 H   0  0  0  0  0  0  0  0  0  0  0  0
   -2.1590    1.4782    0.0000 H   0  0  0  0  0  0  0  0  0  0  0  0
   -4.1570   -0.8000    0.0000 C   0  0  0  0  0  0  0  0  0  0  0  0
   -3.5446   -2.2782    0.0000 H   0  0  0  0  0  0  0  0  0  0  0  0
   -4.7691   -2.2782    0.0000 H   0  0  0  0  0  0  0  0  0  0  0  0
   -5.5426    0.0000    0.0000 C   0  0  0  0  0  0  0  0  0  0  0  0
   -6.9282    0.8000    0.0000 H   0  0  0  0  0  0  0  0  0  0  0  0
   -6.9282   -0.8000    0.0000 H   0  0  0  0  0  0  0  0  0  0  0  0
   -5.5426    1.6000    0.0000 H   0  0  0  0  0  0  0  0  0  0  0  0
    6.9283   -0.8000    0.0000 C   0  0  0  0  0  0  0  0  0  0  0  0
    6.9283   -2.4000    0.0000 H   0  0  0  0  0  0  0  0  0  0  0  0
    8.3139    0.0000    0.0000 C   0  0  0  0  0  0  0  0  0  0  0  0
    9.6995   -0.8000    0.0000 H   0  0  0  0  0  0  0  0  0  0  0  0
  1  2  1  0  0  0  0
  1  3  1  0  0  0  0
  1  4  1  0  0  0  0
  4  5  1  0  0  0  0
  5  6  1  0  0  0  0
  5  7  2  0  0  0  0
  7  8  1  0  0  0  0
  7  9  1  0  0  0  0
  9 10  1  0  0  0  0
 10 11  1  0  0  0  0
 10 12  1  0  0  0  0
 10 13  1  0  0  0  0
 13 14  1  0  0  0  0
 13 15  1  0  0  0  0
 13 16  1  0  0  0  0
 16 17  1  0  0  0  0
 16 18  1  0  0  0  0
 16 19  1  0  0  0  0
 19 20  1  0  0  0  0
 19 21  1  0  0  0  0
 19 22  1  0  0  0  0
 22 23  1  0  0  0  0
 22 24  1  0  0  0  0
 22 25  1  0  0  0  0
 25 26  1  0  0  0  0
 25 27  1  0  0  0  0
 25 28  1  0  0  0  0
 28 29  1  0  0  0  0
 28 30  1  0  0  0  0
 28 31  1  0  0  0  0
 31 32  1  0  0  0  0
 31 33  1  0  0  0  0
 31 34  1  0  0  0  0
  9 35  2  0  0  0  0
 35 36  1  0  0  0  0
 35 37  1  0  0  0  0
 37  4  2  0  0  0  0
 37 38  1  0  0  0  0
M  END
> <ChemID>
105384

> <source_casrn>
16245-79-7

> <CAS>
16245-79-7

> <SMILES>
CCCCCCCCc1ccc(N)cc1

> <NAME>
4-Octylaniline

> <preferred_name>
4-Octylaniline

> <iupac>
4-octylaniline

> <MPID>
24233

> <dsstox_substance_id>
DTXSID6022266

> <Canonical_QSARr>
CCCCCCCCc1ccc(N)cc1

> <InChI_Code_QSARr>
InChI=1S/C14H23N/c1-2-3-4-5-6-7-8-13-9-11-14(15)12-10-13/h9-12H,2-8,15H2,1H3

> <InChI Key_QSARr>
ORKQJTBYQZITLA-UHFFFAOYSA-N

> <Salt_Solvent>
?

> <BP>
310.0

$$$$
105390
  -INDIGO-08031720192D

 21 21  0  0  0  0  0  0  0  0999 V2000
    0.0000    1.6001    0.0000 C   0  0  0  0  0  0  0  0  0  0  0  0
    1.3857    2.4000    0.0000 C   0  0  0  0  0  0  0  0  0  0  0  0
    1.3857    4.0000    0.0000 H   0  0  0  0  0  0  0  0  0  0  0  0
    2.7713    1.6001    0.0000 C   0  0  0  0  0  0  0  0  0  0  0  0
    4.1570    2.4000    0.0000 N   0  0  0  0  0  0  0  0  0  0  0  0
    5.5426    1.6001    0.0000 H   0  0  0  0  0  0  0  0  0  0  0  0
    4.1570    4.0000    0.0000 H   0  0  0  0  0  0  0  0  0  0  0  0
    2.7713    0.0001    0.0000 C   0  0  0  0  0  0  0  0  0  0  0  0
    4.1570   -0.8000    0.0000 H   0  0  0  0  0  0  0  0  0  0  0  0
    1.3857   -0.8000    0.0000 C   0  0  0  0  0  0  0  0  0  0  0  0
    1.3857   -2.4000    0.0000 H   0  0  0  0  0  0  0  0  0  0  0  0
    0.0000    0.0001    0.0000 C   0  0  0  0  0  0  0  0  0  0  0  0
   -1.3856   -0.8000    0.0000 C   0  0  0  0  0  0  0  0  0  0  0  0
   -2.7713   -1.5999    0.0000 H   0  0  0  0  0  0  0  0  0  0  0  0
   -1.3857   -2.4000    0.0000 H   0  0  0  0  0  0  0  0  0  0  0  0
   -2.7713    0.0001    0.0000 H   0  0  0  0  0  0  0  0  0  0  0  0
   -1.3856    2.4000    0.0000 O   0  0  0  0  0  0  0  0  0  0  0  0
   -1.3856    4.0000    0.0000 C   0  0  0  0  0  0  0  0  0  0  0  0
   -2.7713    4.8001    0.0000 H   0  0  0  0  0  0  0  0  0  0  0  0
   -1.3856    5.6000    0.0000 H   0  0  0  0  0  0  0  0  0  0  0  0
   -2.7713    3.1999    0.0000 H   0  0  0  0  0  0  0  0  0  0  0  0
  1  2  1  0  0  0  0
  2  3  1  0  0  0  0
  2  4  2  0  0  0  0
  4  5  1  0  0  0  0
  5  6  1  0  0  0  0
  5  7  1  0  0  0  0
  4  8  1  0  0  0  0
  8  9  1  0  0  0  0
  8 10  2  0  0  0  0
 10 11  1  0  0  0  0
 10 12  1  0  0  0  0
 12  1  2  0  0  0  0
 12 13  1  0  0  0  0
 13 14  1  0  0  0  0
 13 15  1  0  0  0  0
 13 16  1  0  0  0  0
  1 17  1  0  0  0  0
 17 18  1  0  0  0  0
 18 19  1  0  0  0  0
 18 20  1  0  0  0  0
 18 21  1  0  0  0  0
M  END
> <ChemID>
105390

> <source_casrn>
16452-01-0

> <CAS>
16452-01-0

> <SMILES>
Cc1ccc(N)cc1OC

> <NAME>
5-AMINO-2-METHYL-ANISOL

> <preferred_name>
3-Methoxy-4-methylaniline

> <iupac>
3-methoxy-4-methylaniline

> <MPID>
24239

> <dsstox_substance_id>
DTXSID9024855

> <Canonical_QSARr>
Cc1ccc(N)cc1OC

> <InChI_Code_QSARr>
InChI=1S/C8H11NO/c1-6-3-4-7(9)5-8(6)10-2/h3-5H,9H2,1-2H3

> <InChI Key_QSARr>
ONADZNBSLRAJFW-UHFFFAOYSA-N

> <Salt_Solvent>
?

> <BP>
251.0

$$$$
105396
  -INDIGO-08031720192D

 30 30  0  0  0  0  0  0  0  0999 V2000
    2.7713    0.0000    0.0000 C   0  0  0  0  0  0  0  0  0  0  0  0
    3.3185    1.5035    0.0000 H   0  0  0  0  0  0  0  0  0  0  0  0
    1.3857    0.8000    0.0000 C   0  0  0  0  0  0  0  0  0  0  0  0
    2.4141    2.0257    0.0000 H   0  0  0  0  0  0  0  0  0  0  0  0
    0.3572    2.0257    0.0000 H   0  0  0  0  0  0  0  0  0  0  0  0
   -0.0000    0.0000    0.0000 C   0  0  0  0  0  0  0  0  0  0  0  0
   -0.5472    1.5035    0.0000 H   0  0  0  0  0  0  0  0  0  0  0  0
   -1.5758   -0.2778    0.0000 C   0  0  0  0  0  0  0  0  0  0  0  0
   -1.5758   -1.3222    0.0000 H   0  0  0  0  0  0  0  0  0  0  0  0
   -2.9613   -1.0778    0.0000 C   0  0  0  0  0  0  0  0  0  0  0  0
   -4.3470   -1.8778    0.0000 H   0  0  0  0  0  0  0  0  0  0  0  0
   -4.3470   -0.2778    0.0000 H   0  0  0  0  0  0  0  0  0  0  0  0
   -2.9613   -2.6779    0.0000 H   0  0  0  0  0  0  0  0  0  0  0  0
   -2.3757    1.1078    0.0000 C   0  0  0  0  0  0  0  0  0  0  0  0
   -3.1757    2.4934    0.0000 H   0  0  0  0  0  0  0  0  0  0  0  0
   -3.9757    1.1078    0.0000 H   0  0  0  0  0  0  0  0  0  0  0  0
   -1.5758    2.4934    0.0000 H   0  0  0  0  0  0  0  0  0  0  0  0
   -0.0000   -1.6000    0.0000 C   0  0  0  0  0  0  0  0  0  0  0  0
   -1.0285   -1.7813    0.0000 H   0  0  0  0  0  0  0  0  0  0  0  0
   -0.5472   -3.1035    0.0000 H   0  0  0  0  0  0  0  0  0  0  0  0
    1.3857   -2.4000    0.0000 C   0  0  0  0  0  0  0  0  0  0  0  0
    0.3572   -3.6257    0.0000 H   0  0  0  0  0  0  0  0  0  0  0  0
    2.4141   -3.6257    0.0000 H   0  0  0  0  0  0  0  0  0  0  0  0
    2.7713   -1.6000    0.0000 C   0  0  0  0  0  0  0  0  0  0  0  0
    3.3185   -3.1035    0.0000 H   0  0  0  0  0  0  0  0  0  0  0  0
    4.3469   -1.3222    0.0000 H   0  0  0  0  0  0  0  0  0  0  0  0
    4.3713    0.0000    0.0000 C   0  0  0  0  0  0  0  0  0  0  0  0
    5.9713    0.0000    0.0000 H   0  0  0  0  0  0  0  0  0  0  0  0
    5.1713    1.3857    0.0000 H   0  0  0  0  0  0  0  0  0  0  0  0
    5.1713   -1.3857    0.0000 H   0  0  0  0  0  0  0  0  0  0  0  0
  1  2  1  0  0  0  0
  1  3  1  0  0  0  0
  3  4  1  0  0  0  0
  3  5  1  0  0  0  0
  3  6  1  0  0  0  0
  6  7  1  0  0  0  0
  6  8  1  0  0  0  0
  8  9  1  0  0  0  0
  8 10  1  0  0  0  0
 10 11  1  0  0  0  0
 10 12  1  0  0  0  0
 10 13  1  0  0  0  0
  8 14  1  0  0  0  0
 14 15  1  0  0  0  0
 14 16  1  0  0  0  0
 14 17  1  0  0  0  0
  6 18  1  0  0  0  0
 18 19  1  0  0  0  0
 18 20  1  0  0  0  0
 18 21  1  0  0  0  0
 21 22  1  0  0  0  0
 21 23  1  0  0  0  0
 21 24  1  0  0  0  0
 24  1  1  0  0  0  0
 24 25  1  0  0  0  0
 24 26  1  0  0  0  0
  1 27  1  0  0  0  0
 27 28  1  0  0  0  0
 27 29  1  0  0  0  0
 27 30  1  0  0  0  0
M  END
> <ChemID>
105396

> <source_casrn>
16580-24-8

> <CAS>
NOCAS_871259

> <SMILES>
CC(C)C1CC(C)CCC1

> <NAME>
CYCLOHEXANE, 1-METHYL-3-(1-METHYLETHYL)-

> <preferred_name>


> <iupac>


> <MPID>
24245

> <dsstox_substance_id>
DTXSID20871259

> <Canonical_QSARr>
CC(C)C1CC(C)CCC1

> <InChI_Code_QSARr>
InChI=1S/C10H20/c1-8(2)10-6-4-5-9(3)7-10/h8-10H,4-7H2,1-3H3

> <InChI Key_QSARr>
QRDCBPPMQOPHOU-UHFFFAOYSA-N

> <Salt_Solvent>
?

> <BP>
166.5

$$$$
105400
  -INDIGO-08031720192D

 24 23  0  0  0  0  0  0  0  0999 V2000
    0.9901   -2.4635    0.0000 C   0  0  0  0  0  0  0  0  0  0  0  0
    1.5372   -3.9670    0.0000 H   0  0  0  0  0  0  0  0  0  0  0  0
    2.0186   -1.2378    0.0000 H   0  0  0  0  0  0  0  0  0  0  0  0
   -0.5857   -2.1857    0.0000 C   0  0  0  0  0  0  0  0  0  0  0  0
   -1.3856   -3.5713    0.0000 H   0  0  0  0  0  0  0  0  0  0  0  0
   -1.3856   -0.8000    0.0000 C   0  0  0  0  0  0  0  0  0  0  0  0
   -2.1856    0.5857    0.0000 H   0  0  0  0  0  0  0  0  0  0  0  0
    0.0001    0.0000    0.0000 C   0  0  0  0  0  0  0  0  0  0  0  0
    0.8000   -1.3856    0.0000 H   0  0  0  0  0  0  0  0  0  0  0  0
    1.3856    0.8000    0.0000 C   0  0  0  0  0  0  0  0  0  0  0  0
    1.9979    2.2782    0.0000 H   0  0  0  0  0  0  0  0  0  0  0  0
    0.7734    2.2782    0.0000 H   0  0  0  0  0  0  0  0  0  0  0  0
    2.7713    0.0000    0.0000 C   0  0  0  0  0  0  0  0  0  0  0  0
    4.1569    0.8000    0.0000 H   0  0  0  0  0  0  0  0  0  0  0  0
    4.1569   -0.8000    0.0000 H   0  0  0  0  0  0  0  0  0  0  0  0
    2.7713    1.6000    0.0000 H   0  0  0  0  0  0  0  0  0  0  0  0
   -0.8000    1.3857    0.0000 C   0  0  0  0  0  0  0  0  0  0  0  0
   -1.6000    2.7712    0.0000 H   0  0  0  0  0  0  0  0  0  0  0  0
   -0.2528    2.8891    0.0000 H   0  0  0  0  0  0  0  0  0  0  0  0
   -2.3757    1.6634    0.0000 H   0  0  0  0  0  0  0  0  0  0  0  0
   -2.7712   -1.6000    0.0000 C   0  0  0  0  0  0  0  0  0  0  0  0
   -4.1569   -2.4000    0.0000 H   0  0  0  0  0  0  0  0  0  0  0  0
   -2.7713   -3.2000    0.0000 H   0  0  0  0  0  0  0  0  0  0  0  0
   -4.1569   -0.8000    0.0000 H   0  0  0  0  0  0  0  0  0  0  0  0
  1  2  1  0  0  0  0
  1  3  1  0  0  0  0
  1  4  2  0  0  0  0
  4  5  1  0  0  0  0
  4  6  1  0  0  0  0
  6  7  1  0  0  0  0
  6  8  1  0  0  0  0
  8  9  1  0  0  0  0
  8 10  1  0  0  0  0
 10 11  1  0  0  0  0
 10 12  1  0  0  0  0
 10 13  1  0  0  0  0
 13 14  1  0  0  0  0
 13 15  1  0  0  0  0
 13 16  1  0  0  0  0
  8 17  1  0  0  0  0
 17 18  1  0  0  0  0
 17 19  1  0  0  0  0
 17 20  1  0  0  0  0
  6 21  1  0  0  0  0
 21 22  1  0  0  0  0
 21 23  1  0  0  0  0
 21 24  1  0  0  0  0
M  END
> <ChemID>
105400

> <source_casrn>
16745-94-1

> <CAS>
NOCAS_871260

> <SMILES>
CCC(C)C(C)C=C

> <NAME>
1-HEXENE, 3,4-DIMETHYL-

> <preferred_name>


> <iupac>


> <MPID>
24249

> <dsstox_substance_id>
DTXSID30871260

> <Canonical_QSARr>
CCC(C)C(C)C=C

> <InChI_Code_QSARr>
InChI=1S/C8H16/c1-5-7(3)8(4)6-2/h5,7-8H,1,6H2,2-4H3

> <InChI Key_QSARr>
OWWRMMIWAOBBFK-UHFFFAOYSA-N

> <Salt_Solvent>
?

> <BP>
112.0

$$$$
105404
  -INDIGO-08031720192D

 29 28  0  0  0  0  0  0  0  0999 V2000
   -0.0001    0.0000    0.0000 C   0  0  0  0  0  0  0  0  0  0  0  0
    1.6000    0.0000    0.0000 C   0  0  0  0  0  0  0  0  0  0  0  0
    1.0527    1.5035    0.0000 H   0  0  0  0  0  0  0  0  0  0  0  0
    2.9856    0.8000    0.0000 C   0  0  0  0  0  0  0  0  0  0  0  0
    4.3713    1.6000    0.0000 H   0  0  0  0  0  0  0  0  0  0  0  0
    2.9856    2.4000    0.0000 H   0  0  0  0  0  0  0  0  0  0  0  0
    4.3713    0.0000    0.0000 H   0  0  0  0  0  0  0  0  0  0  0  0
    2.1472   -1.5035    0.0000 C   0  0  0  0  0  0  0  0  0  0  0  0
    3.7230   -1.7813    0.0000 H   0  0  0  0  0  0  0  0  0  0  0  0
    2.6945   -3.0070    0.0000 H   0  0  0  0  0  0  0  0  0  0  0  0
    3.1757   -0.2779    0.0000 H   0  0  0  0  0  0  0  0  0  0  0  0
   -1.5999   -0.0000    0.0000 C   0  0  0  0  0  0  0  0  0  0  0  0
   -1.8089   -1.5863    0.0000 H   0  0  0  0  0  0  0  0  0  0  0  0
   -2.8694   -0.9740    0.0000 H   0  0  0  0  0  0  0  0  0  0  0  0
   -2.9856    0.8000    0.0000 C   0  0  0  0  0  0  0  0  0  0  0  0
   -3.5979    2.2782    0.0000 H   0  0  0  0  0  0  0  0  0  0  0  0
   -2.3733    2.2782    0.0000 H   0  0  0  0  0  0  0  0  0  0  0  0
   -4.3713    0.0000    0.0000 C   0  0  0  0  0  0  0  0  0  0  0  0
   -5.7569   -0.8000    0.0000 H   0  0  0  0  0  0  0  0  0  0  0  0
   -5.7569    0.8000    0.0000 H   0  0  0  0  0  0  0  0  0  0  0  0
   -4.3713   -1.6000    0.0000 H   0  0  0  0  0  0  0  0  0  0  0  0
   -0.0001    1.6000    0.0000 C   0  0  0  0  0  0  0  0  0  0  0  0
   -0.0001    3.2000    0.0000 H   0  0  0  0  0  0  0  0  0  0  0  0
    1.2256    2.6285    0.0000 H   0  0  0  0  0  0  0  0  0  0  0  0
   -1.3856    2.4000    0.0000 H   0  0  0  0  0  0  0  0  0  0  0  0
   -0.0001   -1.6000    0.0000 C   0  0  0  0  0  0  0  0  0  0  0  0
   -0.0001   -3.2000    0.0000 H   0  0  0  0  0  0  0  0  0  0  0  0
   -1.2256   -2.6285    0.0000 H   0  0  0  0  0  0  0  0  0  0  0  0
    1.3856   -2.4000    0.0000 H   0  0  0  0  0  0  0  0  0  0  0  0
  1  2  1  0  0  0  0
  2  3  1  0  0  0  0
  2  4  1  0  0  0  0
  4  5  1  0  0  0  0
  4  6  1  0  0  0  0
  4  7  1  0  0  0  0
  2  8  1  0  0  0  0
  8  9  1  0  0  0  0
  8 10  1  0  0  0  0
  8 11  1  0  0  0  0
  1 12  1  0  0  0  0
 12 13  1  0  0  0  0
 12 14  1  0  0  0  0
 12 15  1  0  0  0  0
 15 16  1  0  0  0  0
 15 17  1  0  0  0  0
 15 18  1  0  0  0  0
 18 19  1  0  0  0  0
 18 20  1  0  0  0  0
 18 21  1  0  0  0  0
  1 22  1  0  0  0  0
 22 23  1  0  0  0  0
 22 24  1  0  0  0  0
 22 25  1  0  0  0  0
  1 26  1  0  0  0  0
 26 27  1  0  0  0  0
 26 28  1  0  0  0  0
 26 29  1  0  0  0  0
M  END
> <ChemID>
105404

> <source_casrn>
16747-28-7

> <CAS>
16747-28-7

> <SMILES>
CCCC(C)(C)C(C)C

> <NAME>
2,3,3-TRIMETHYLHEXANE

> <preferred_name>
2,3,3-Trimethylhexane

> <iupac>
2,3,3-TRIMETHYLHEXANE

> <MPID>
24253

> <dsstox_substance_id>
DTXSID30168288

> <Canonical_QSARr>
CCCC(C)(C)C(C)C

> <InChI_Code_QSARr>
InChI=1S/C9H20/c1-6-7-9(4,5)8(2)3/h8H,6-7H2,1-5H3

> <InChI Key_QSARr>
DJYSEQMMCZAKGT-UHFFFAOYSA-N

> <Salt_Solvent>
?

> <BP>
137.7

$$$$
105408
  -INDIGO-08031720192D

 29 28  0  0  0  0  0  0  0  0999 V2000
    0.0000    0.0000    0.0000 C   0  0  0  0  0  0  0  0  0  0  0  0
    1.3856    0.8000    0.0000 C   0  0  0  0  0  0  0  0  0  0  0  0
    0.1600    1.8285    0.0000 H   0  0  0  0  0  0  0  0  0  0  0  0
    2.4141    2.0257    0.0000 C   0  0  0  0  0  0  0  0  0  0  0  0
    3.4426    3.2513    0.0000 H   0  0  0  0  0  0  0  0  0  0  0  0
    1.8669    3.5292    0.0000 H   0  0  0  0  0  0  0  0  0  0  0  0
    4.0141    2.0257    0.0000 H   0  0  0  0  0  0  0  0  0  0  0  0
    2.6113   -0.2284    0.0000 C   0  0  0  0  0  0  0  0  0  0  0  0
    4.1870    0.0494    0.0000 H   0  0  0  0  0  0  0  0  0  0  0  0
    3.6398   -1.4541    0.0000 H   0  0  0  0  0  0  0  0  0  0  0  0
    3.1585    1.2750    0.0000 H   0  0  0  0  0  0  0  0  0  0  0  0
   -1.3856   -0.8000    0.0000 C   0  0  0  0  0  0  0  0  0  0  0  0
   -1.7319   -2.3620    0.0000 H   0  0  0  0  0  0  0  0  0  0  0  0
   -0.5260   -2.1495    0.0000 H   0  0  0  0  0  0  0  0  0  0  0  0
   -2.8892   -0.2528    0.0000 C   0  0  0  0  0  0  0  0  0  0  0  0
   -4.1149   -1.2812    0.0000 H   0  0  0  0  0  0  0  0  0  0  0  0
   -4.3927    0.2945    0.0000 H   0  0  0  0  0  0  0  0  0  0  0  0
   -2.6113   -1.8285    0.0000 H   0  0  0  0  0  0  0  0  0  0  0  0
   -0.8000    1.3856    0.0000 C   0  0  0  0  0  0  0  0  0  0  0  0
   -2.3621    1.7319    0.0000 H   0  0  0  0  0  0  0  0  0  0  0  0
   -2.1494    0.5259    0.0000 H   0  0  0  0  0  0  0  0  0  0  0  0
   -0.2528    2.8892    0.0000 C   0  0  0  0  0  0  0  0  0  0  0  0
   -1.2813    4.1149    0.0000 H   0  0  0  0  0  0  0  0  0  0  0  0
    0.2944    4.3927    0.0000 H   0  0  0  0  0  0  0  0  0  0  0  0
   -1.8285    2.6113    0.0000 H   0  0  0  0  0  0  0  0  0  0  0  0
    0.8000   -1.3857    0.0000 C   0  0  0  0  0  0  0  0  0  0  0  0
    1.5999   -2.7713    0.0000 H   0  0  0  0  0  0  0  0  0  0  0  0
    0.2528   -2.8891    0.0000 H   0  0  0  0  0  0  0  0  0  0  0  0
    2.4000   -1.3857    0.0000 H   0  0  0  0  0  0  0  0  0  0  0  0
  1  2  1  0  0  0  0
  2  3  1  0  0  0  0
  2  4  1  0  0  0  0
  4  5  1  0  0  0  0
  4  6  1  0  0  0  0
  4  7  1  0  0  0  0
  2  8  1  0  0  0  0
  8  9  1  0  0  0  0
  8 10  1  0  0  0  0
  8 11  1  0  0  0  0
  1 12  1  0  0  0  0
 12 13  1  0  0  0  0
 12 14  1  0  0  0  0
 12 15  1  0  0  0  0
 15 16  1  0  0  0  0
 15 17  1  0  0  0  0
 15 18  1  0  0  0  0
  1 19  1  0  0  0  0
 19 20  1  0  0  0  0
 19 21  1  0  0  0  0
 19 22  1  0  0  0  0
 22 23  1  0  0  0  0
 22 24  1  0  0  0  0
 22 25  1  0  0  0  0
  1 26  1  0  0  0  0
 26 27  1  0  0  0  0
 26 28  1  0  0  0  0
 26 29  1  0  0  0  0
M  END
> <ChemID>
105408

> <source_casrn>
16747-33-4

> <CAS>
16747-33-4

> <SMILES>
CC(C)C(C)(CC)CC

> <NAME>
PENTANE, 3-ETHYL-2,3-DIMETHYL-

> <preferred_name>
Pentane, 3-ethyl-2,3-dimethyl-

> <iupac>


> <MPID>
24257

> <dsstox_substance_id>
DTXSID60168291

> <Canonical_QSARr>
CC(C)C(C)(CC)CC

> <InChI_Code_QSARr>
InChI=1S/C9H20/c1-6-9(5,7-2)8(3)4/h8H,6-7H2,1-5H3

> <InChI Key_QSARr>
MMASVVOQIKCFJZ-UHFFFAOYSA-N

> <Salt_Solvent>
?

> <BP>
144.7

$$$$
105412
  -INDIGO-08031720192D

 32 31  0  0  0  0  0  0  0  0999 V2000
    1.8535    1.2979    0.0000 C   0  0  0  0  0  0  0  0  0  0  0  0
    2.1314    2.8735    0.0000 H   0  0  0  0  0  0  0  0  0  0  0  0
    3.3570    1.8451    0.0000 H   0  0  0  0  0  0  0  0  0  0  0  0
    1.5036    2.1472    0.0000 H   0  0  0  0  0  0  0  0  0  0  0  0
    1.5757   -0.2779    0.0000 C   0  0  0  0  0  0  0  0  0  0  0  0
    0.0001    0.0000    0.0000 C   0  0  0  0  0  0  0  0  0  0  0  0
    0.0001   -1.6000    0.0000 H   0  0  0  0  0  0  0  0  0  0  0  0
   -1.5757   -0.2779    0.0000 C   0  0  0  0  0  0  0  0  0  0  0  0
   -3.1515   -0.5556    0.0000 C   0  0  0  0  0  0  0  0  0  0  0  0
   -4.7271   -0.8335    0.0000 H   0  0  0  0  0  0  0  0  0  0  0  0
   -4.1799    0.6700    0.0000 H   0  0  0  0  0  0  0  0  0  0  0  0
   -3.6986   -2.0592    0.0000 H   0  0  0  0  0  0  0  0  0  0  0  0
   -1.8535    1.2979    0.0000 C   0  0  0  0  0  0  0  0  0  0  0  0
   -2.4007    2.8014    0.0000 H   0  0  0  0  0  0  0  0  0  0  0  0
   -3.3570    1.8451    0.0000 H   0  0  0  0  0  0  0  0  0  0  0  0
   -3.2392    0.4979    0.0000 H   0  0  0  0  0  0  0  0  0  0  0  0
   -1.2978   -1.8535    0.0000 C   0  0  0  0  0  0  0  0  0  0  0  0
   -2.5235   -2.8819    0.0000 H   0  0  0  0  0  0  0  0  0  0  0  0
   -1.0200   -3.4292    0.0000 H   0  0  0  0  0  0  0  0  0  0  0  0
   -2.8736   -1.5757    0.0000 H   0  0  0  0  0  0  0  0  0  0  0  0
    0.0001    1.6000    0.0000 C   0  0  0  0  0  0  0  0  0  0  0  0
   -0.0001    3.2000    0.0000 H   0  0  0  0  0  0  0  0  0  0  0  0
   -1.3857    2.4000    0.0000 H   0  0  0  0  0  0  0  0  0  0  0  0
    0.6008    2.2949    0.0000 H   0  0  0  0  0  0  0  0  0  0  0  0
    3.1515   -0.5556    0.0000 C   0  0  0  0  0  0  0  0  0  0  0  0
    4.7271   -0.8335    0.0000 H   0  0  0  0  0  0  0  0  0  0  0  0
    3.6986   -2.0592    0.0000 H   0  0  0  0  0  0  0  0  0  0  0  0
    4.1799    0.6700    0.0000 H   0  0  0  0  0  0  0  0  0  0  0  0
    1.5757   -1.8778    0.0000 C   0  0  0  0  0  0  0  0  0  0  0  0
    1.5757   -3.4778    0.0000 H   0  0  0  0  0  0  0  0  0  0  0  0
    2.9613   -2.6778    0.0000 H   0  0  0  0  0  0  0  0  0  0  0  0
    0.1901   -2.6778    0.0000 H   0  0  0  0  0  0  0  0  0  0  0  0
  1  2  1  0  0  0  0
  1  3  1  0  0  0  0
  1  4  1  0  0  0  0
  1  5  1  0  0  0  0
  5  6  1  0  0  0  0
  6  7  1  0  0  0  0
  6  8  1  0  0  0  0
  8  9  1  0  0  0  0
  9 10  1  0  0  0  0
  9 11  1  0  0  0  0
  9 12  1  0  0  0  0
  8 13  1  0  0  0  0
 13 14  1  0  0  0  0
 13 15  1  0  0  0  0
 13 16  1  0  0  0  0
  8 17  1  0  0  0  0
 17 18  1  0  0  0  0
 17 19  1  0  0  0  0
 17 20  1  0  0  0  0
  6 21  1  0  0  0  0
 21 22  1  0  0  0  0
 21 23  1  0  0  0  0
 21 24  1  0  0  0  0
  5 25  1  0  0  0  0
 25 26  1  0  0  0  0
 25 27  1  0  0  0  0
 25 28  1  0  0  0  0
  5 29  1  0  0  0  0
 29 30  1  0  0  0  0
 29 31  1  0  0  0  0
 29 32  1  0  0  0  0
M  END
> <ChemID>
105412

> <source_casrn>
16747-45-8

> <CAS>
NOCAS_871266

> <SMILES>
CC(C(C)(C)C)C(C)(C)C

> <NAME>
2,2,3,4,4-PENTAMETHYLPENTANE

> <preferred_name>


> <iupac>


> <MPID>
24261

> <dsstox_substance_id>
DTXSID90871266

> <Canonical_QSARr>
CC(C(C)(C)C)C(C)(C)C

> <InChI_Code_QSARr>
InChI=1S/C10H22/c1-8(9(2,3)4)10(5,6)7/h8H,1-7H3

> <InChI Key_QSARr>
OWFKEHICSVOVAC-UHFFFAOYSA-N

> <Salt_Solvent>
?

> <BP>
159.3

$$$$
105416
  -INDIGO-08031720192D

 17 17  0  0  0  0  0  0  0  0999 V2000
    0.0000    0.0000    0.0000 C   0  0  0  0  0  0  0  0  0  0  0  0
    0.8000    1.3856    0.0000 C   0  0  0  0  0  0  0  0  0  0  0  0
    0.0000    2.7713    0.0000 O   0  0  0  0  0  0  0  0  0  0  0  0
    0.8000    4.1569    0.0000 H   0  0  0  0  0  0  0  0  0  0  0  0
    2.4000    1.3856    0.0000 C   0  0  0  0  0  0  0  0  0  0  0  0
    3.2001    2.7713    0.0000 H   0  0  0  0  0  0  0  0  0  0  0  0
    3.2001    0.0000    0.0000 C   0  0  0  0  0  0  0  0  0  0  0  0
    4.8000    0.0000    0.0000 H   0  0  0  0  0  0  0  0  0  0  0  0
    2.4000   -1.3856    0.0000 C   0  0  0  0  0  0  0  0  0  0  0  0
    3.2001   -2.7713    0.0000 Cl  0  0  0  0  0  0  0  0  0  0  0  0
    0.8000   -1.3856    0.0000 C   0  0  0  0  0  0  0  0  0  0  0  0
    0.0000   -2.7713    0.0000 H   0  0  0  0  0  0  0  0  0  0  0  0
   -1.6000    0.0000    0.0000 O   0  0  0  0  0  0  0  0  0  0  0  0
   -2.4001   -1.3856    0.0000 C   0  0  0  0  0  0  0  0  0  0  0  0
   -4.0000   -1.3856    0.0000 H   0  0  0  0  0  0  0  0  0  0  0  0
   -3.2000   -2.7713    0.0000 H   0  0  0  0  0  0  0  0  0  0  0  0
   -3.2000    0.0000    0.0000 H   0  0  0  0  0  0  0  0  0  0  0  0
  1  2  1  0  0  0  0
  2  3  1  0  0  0  0
  3  4  1  0  0  0  0
  2  5  2  0  0  0  0
  5  6  1  0  0  0  0
  5  7  1  0  0  0  0
  7  8  1  0  0  0  0
  7  9  2  0  0  0  0
  9 10  1  0  0  0  0
  9 11  1  0  0  0  0
 11  1  2  0  0  0  0
 11 12  1  0  0  0  0
  1 13  1  0  0  0  0
 13 14  1  0  0  0  0
 14 15  1  0  0  0  0
 14 16  1  0  0  0  0
 14 17  1  0  0  0  0
M  END
> <ChemID>
105416

> <source_casrn>
16766-30-6

> <CAS>
16766-30-6

> <SMILES>
COc1cc(Cl)ccc1O

> <NAME>
4-Chloroguaiacol

> <preferred_name>
Phenol, 4-chloro-2-methoxy-

> <iupac>
4-Chloro-2-methoxyphenol

> <MPID>
24265

> <dsstox_substance_id>
DTXSID0074974

> <Canonical_QSARr>
COc1cc(Cl)ccc1O

> <InChI_Code_QSARr>
InChI=1S/C7H7ClO2/c1-10-7-4-5(8)2-3-6(7)9/h2-4,9H,1H3

> <InChI Key_QSARr>
FVZQMMMRFNURSH-UHFFFAOYSA-N

> <Salt_Solvent>
?

> <BP>
241.0

$$$$
105421
  -INDIGO-08031720192D

 18 17  0  0  0  0  0  0  0  0999 V2000
   -2.4000   -1.3856    0.0000 C   0  0  0  0  0  0  0  0  0  0  0  0
   -0.8000   -1.3856    0.0000 C   0  0  0  0  0  0  0  0  0  0  0  0
   -0.0000   -2.7713    0.0000 H   0  0  0  0  0  0  0  0  0  0  0  0
   -0.0000    0.0000    0.0000 C   0  0  0  0  0  0  0  0  0  0  0  0
   -1.2694    0.9740    0.0000 H   0  0  0  0  0  0  0  0  0  0  0  0
   -0.2088    1.5863    0.0000 H   0  0  0  0  0  0  0  0  0  0  0  0
    1.6001    0.0000    0.0000 C   0  0  0  0  0  0  0  0  0  0  0  0
    3.2000    0.0000    0.0000 H   0  0  0  0  0  0  0  0  0  0  0  0
    2.4000    1.3856    0.0000 H   0  0  0  0  0  0  0  0  0  0  0  0
    2.4000   -1.3856    0.0000 H   0  0  0  0  0  0  0  0  0  0  0  0
   -3.2000    0.0000    0.0000 C   0  0  0  0  0  0  0  0  0  0  0  0
   -4.8000    0.0000    0.0000 O   0  0  0  0  0  0  0  0  0  0  0  0
   -5.6000    1.3856    0.0000 H   0  0  0  0  0  0  0  0  0  0  0  0
   -2.4000    1.3856    0.0000 O   0  0  0  0  0  0  0  0  0  0  0  0
   -3.2000   -2.7713    0.0000 C   0  0  0  0  0  0  0  0  0  0  0  0
   -4.0001   -4.1569    0.0000 H   0  0  0  0  0  0  0  0  0  0  0  0
   -4.8000   -2.7713    0.0000 H   0  0  0  0  0  0  0  0  0  0  0  0
   -2.4000   -4.1569    0.0000 H   0  0  0  0  0  0  0  0  0  0  0  0
  1  2  2  0  0  0  0
  2  3  1  0  0  0  0
  2  4  1  0  0  0  0
  4  5  1  0  0  0  0
  4  6  1  0  0  0  0
  4  7  1  0  0  0  0
  7  8  1  0  0  0  0
  7  9  1  0  0  0  0
  7 10  1  0  0  0  0
  1 11  1  0  0  0  0
 11 12  1  0  0  0  0
 12 13  1  0  0  0  0
 11 14  2  0  0  0  0
  1 15  1  0  0  0  0
 15 16  1  0  0  0  0
 15 17  1  0  0  0  0
 15 18  1  0  0  0  0
M  END
> <ChemID>
105421

> <source_casrn>
16957-70-3

> <CAS>
3142-72-1

> <SMILES>
CC(=CCC)C(O)=O

> <NAME>
2-Pentenoic acid, 2-methyl-, (E)-

> <preferred_name>
2-Methylpent-2-en-1-oic acid

> <iupac>
2-methylpent-2-enoic acid

> <MPID>
24269

> <dsstox_substance_id>
DTXSID0051998

> <Canonical_QSARr>
CC(=CCC)C(O)=O

> <InChI_Code_QSARr>
InChI=1S/C6H10O2/c1-3-4-5(2)6(7)8/h4H,3H2,1-2H3,(H,7,8)/b5-4-

> <InChI Key_QSARr>
JJYWRQLLQAKNAD-PLNGDYQASA-N

> <Salt_Solvent>
?

> <BP>
214.0

$$$$
105425
  -INDIGO-08031720192D

 18 19  0  0  0  0  0  0  0  0999 V2000
   -1.0706    1.1890    0.0000 O   0  0  0  0  0  0  0  0  0  0  0  0
    0.0000    0.0000    0.0000 C   0  0  0  0  0  0  0  0  0  0  0  0
   -0.8000   -1.3856    0.0000 C   0  0  0  0  0  0  0  0  0  0  0  0
    0.0000   -2.7713    0.0000 C   0  0  0  0  0  0  0  0  0  0  0  0
   -0.8000   -4.1569    0.0000 H   0  0  0  0  0  0  0  0  0  0  0  0
    1.6000   -2.7713    0.0000 C   0  0  0  0  0  0  0  0  0  0  0  0
    2.4000   -4.1569    0.0000 H   0  0  0  0  0  0  0  0  0  0  0  0
    2.4000   -1.3856    0.0000 C   0  0  0  0  0  0  0  0  0  0  0  0
    4.0000   -1.3856    0.0000 H   0  0  0  0  0  0  0  0  0  0  0  0
    1.6000    0.0000    0.0000 C   0  0  0  0  0  0  0  0  0  0  0  0
    2.4000    1.3856    0.0000 C   0  0  0  0  0  0  0  0  0  0  0  0
    3.2001    2.7713    0.0000 H   0  0  0  0  0  0  0  0  0  0  0  0
    4.0000    1.3856    0.0000 H   0  0  0  0  0  0  0  0  0  0  0  0
    1.6000    2.7713    0.0000 H   0  0  0  0  0  0  0  0  0  0  0  0
   -2.3650   -1.0529    0.0000 C   0  0  0  0  0  0  0  0  0  0  0  0
   -3.5540   -2.1236    0.0000 H   0  0  0  0  0  0  0  0  0  0  0  0
   -2.5322    0.5382    0.0000 C   0  0  0  0  0  0  0  0  0  0  0  0
   -3.9179    1.3383    0.0000 H   0  0  0  0  0  0  0  0  0  0  0  0
  1  2  1  0  0  0  0
  2  3  1  0  0  0  0
  3  4  2  0  0  0  0
  4  5  1  0  0  0  0
  4  6  1  0  0  0  0
  6  7  1  0  0  0  0
  6  8  2  0  0  0  0
  8  9  1  0  0  0  0
  8 10  1  0  0  0  0
 10  2  2  0  0  0  0
 10 11  1  0  0  0  0
 11 12  1  0  0  0  0
 11 13  1  0  0  0  0
 11 14  1  0  0  0  0
  3 15  1  0  0  0  0
 15 16  1  0  0  0  0
 15 17  2  0  0  0  0
 17  1  1  0  0  0  0
 17 18  1  0  0  0  0
M  END
> <ChemID>
105425

> <source_casrn>
17059-52-8

> <CAS>
17059-52-8

> <SMILES>
Cc1cccc2ccoc21

> <NAME>
BENZOFURAN, 7-METHYL-

> <preferred_name>
7-Methylbenzofuran

> <iupac>
7-methyl-1-benzofuran

> <MPID>
24273

> <dsstox_substance_id>
DTXSID60168892

> <Canonical_QSARr>
Cc1cccc2ccoc21

> <InChI_Code_QSARr>
InChI=1S/C9H8O/c1-7-3-2-4-8-5-6-10-9(7)8/h2-6H,1H3

> <InChI Key_QSARr>
PHQXPPBIJBCIMI-UHFFFAOYSA-N

> <Salt_Solvent>
?

> <BP>
190.5

$$$$
105430
  -INDIGO-08031720192D

 19 18  0  0  0  0  0  0  0  0999 V2000
    1.3857    0.8000    0.0000 C   0  0  0  0  0  0  0  0  0  0  0  0
    1.3857    2.4000    0.0000 O   0  0  0  0  0  0  0  0  0  0  0  0
    2.7713    0.0000    0.0000 O   0  0  0  0  0  0  0  0  0  0  0  0
    4.1569    0.8000    0.0000 C   0  0  0  0  0  0  0  0  0  0  0  0
    5.5426    1.6000    0.0000 H   0  0  0  0  0  0  0  0  0  0  0  0
    5.5426    0.0000    0.0000 H   0  0  0  0  0  0  0  0  0  0  0  0
    4.1569    2.4000    0.0000 H   0  0  0  0  0  0  0  0  0  0  0  0
    0.0000    0.0000    0.0000 C   0  0  0  0  0  0  0  0  0  0  0  0
   -1.3856   -0.8000    0.0000 H   0  0  0  0  0  0  0  0  0  0  0  0
    0.8001   -1.3856    0.0000 C   0  0  0  0  0  0  0  0  0  0  0  0
    0.0000   -2.7713    0.0000 C   0  0  0  0  0  0  0  0  0  0  0  0
   -0.8000   -4.1569    0.0000 H   0  0  0  0  0  0  0  0  0  0  0  0
    0.8001   -4.1569    0.0000 H   0  0  0  0  0  0  0  0  0  0  0  0
   -1.6000   -2.7713    0.0000 H   0  0  0  0  0  0  0  0  0  0  0  0
    2.4000   -1.3856    0.0000 O   0  0  0  0  0  0  0  0  0  0  0  0
   -0.8000    1.3856    0.0000 C   0  0  0  0  0  0  0  0  0  0  0  0
   -1.6000    2.7713    0.0000 H   0  0  0  0  0  0  0  0  0  0  0  0
   -2.4000    1.3856    0.0000 H   0  0  0  0  0  0  0  0  0  0  0  0
    0.0000    2.7713    0.0000 H   0  0  0  0  0  0  0  0  0  0  0  0
  1  2  2  0  0  0  0
  1  3  1  0  0  0  0
  3  4  1  0  0  0  0
  4  5  1  0  0  0  0
  4  6  1  0  0  0  0
  4  7  1  0  0  0  0
  1  8  1  0  0  0  0
  8  9  1  0  0  0  0
  8 10  1  0  0  0  0
 10 11  1  0  0  0  0
 11 12  1  0  0  0  0
 11 13  1  0  0  0  0
 11 14  1  0  0  0  0
 10 15  2  0  0  0  0
  8 16  1  0  0  0  0
 16 17  1  0  0  0  0
 16 18  1  0  0  0  0
 16 19  1  0  0  0  0
M  END
> <ChemID>
105430

> <source_casrn>
17094-21-2

> <CAS>
NOCAS_871972

> <SMILES>
CC(=O)C(C)C(=O)OC

> <NAME>
BUTANOIC ACID, 2-METHYL-3-OXO-, METHYL ESTER

> <preferred_name>


> <iupac>


> <MPID>
24278

> <dsstox_substance_id>
DTXSID80871972

> <Canonical_QSARr>
CC(=O)C(C)C(=O)OC

> <InChI_Code_QSARr>
InChI=1S/C6H10O3/c1-4(5(2)7)6(8)9-3/h4H,1-3H3

> <InChI Key_QSARr>
NDTWZHURUDSPQV-UHFFFAOYSA-N

> <Salt_Solvent>
?

> <BP>
177.4

$$$$
105434
  -INDIGO-08031720192D

 32 31  0  0  0  0  0  0  0  0999 V2000
   -0.0000   -0.0000    0.0000 C   0  0  0  0  0  0  0  0  0  0  0  0
    1.5035    0.5472    0.0000 C   0  0  0  0  0  0  0  0  0  0  0  0
    1.1572    2.1093    0.0000 H   0  0  0  0  0  0  0  0  0  0  0  0
    2.3632    1.8967    0.0000 H   0  0  0  0  0  0  0  0  0  0  0  0
    2.7292   -0.4812    0.0000 C   0  0  0  0  0  0  0  0  0  0  0  0
    3.0755   -2.0434    0.0000 H   0  0  0  0  0  0  0  0  0  0  0  0
    2.4242   -1.3193    0.0000 H   0  0  0  0  0  0  0  0  0  0  0  0
    4.2327    0.0660    0.0000 C   0  0  0  0  0  0  0  0  0  0  0  0
    3.8863    1.6281    0.0000 H   0  0  0  0  0  0  0  0  0  0  0  0
    5.0924    1.4155    0.0000 H   0  0  0  0  0  0  0  0  0  0  0  0
    5.4583   -0.9625    0.0000 C   0  0  0  0  0  0  0  0  0  0  0  0
    6.6840   -1.9909    0.0000 H   0  0  0  0  0  0  0  0  0  0  0  0
    6.9619   -0.4152    0.0000 H   0  0  0  0  0  0  0  0  0  0  0  0
    5.1806   -2.5381    0.0000 H   0  0  0  0  0  0  0  0  0  0  0  0
   -1.3856   -0.8000    0.0000 C   0  0  0  0  0  0  0  0  0  0  0  0
   -0.7733   -2.2782    0.0000 H   0  0  0  0  0  0  0  0  0  0  0  0
   -1.9979   -2.2782    0.0000 H   0  0  0  0  0  0  0  0  0  0  0  0
   -2.8891   -0.2528    0.0000 C   0  0  0  0  0  0  0  0  0  0  0  0
   -4.3927    0.2944    0.0000 H   0  0  0  0  0  0  0  0  0  0  0  0
   -4.1147   -1.2812    0.0000 H   0  0  0  0  0  0  0  0  0  0  0  0
   -3.1670    1.3229    0.0000 H   0  0  0  0  0  0  0  0  0  0  0  0
   -0.8000    1.3856    0.0000 C   0  0  0  0  0  0  0  0  0  0  0  0
   -2.2782    0.7734    0.0000 H   0  0  0  0  0  0  0  0  0  0  0  0
   -2.2782    1.9979    0.0000 H   0  0  0  0  0  0  0  0  0  0  0  0
   -0.2528    2.8891    0.0000 C   0  0  0  0  0  0  0  0  0  0  0  0
    0.2945    4.3927    0.0000 H   0  0  0  0  0  0  0  0  0  0  0  0
   -1.2813    4.1148    0.0000 H   0  0  0  0  0  0  0  0  0  0  0  0
    1.3230    3.1670    0.0000 H   0  0  0  0  0  0  0  0  0  0  0  0
    0.8001   -1.3856    0.0000 C   0  0  0  0  0  0  0  0  0  0  0  0
    1.6000   -2.7713    0.0000 H   0  0  0  0  0  0  0  0  0  0  0  0
   -0.0000   -2.7713    0.0000 H   0  0  0  0  0  0  0  0  0  0  0  0
    1.6482   -1.6609    0.0000 H   0  0  0  0  0  0  0  0  0  0  0  0
  1  2  1  0  0  0  0
  2  3  1  0  0  0  0
  2  4  1  0  0  0  0
  2  5  1  0  0  0  0
  5  6  1  0  0  0  0
  5  7  1  0  0  0  0
  5  8  1  0  0  0  0
  8  9  1  0  0  0  0
  8 10  1  0  0  0  0
  8 11  1  0  0  0  0
 11 12  1  0  0  0  0
 11 13  1  0  0  0  0
 11 14  1  0  0  0  0
  1 15  1  0  0  0  0
 15 16  1  0  0  0  0
 15 17  1  0  0  0  0
 15 18  1  0  0  0  0
 18 19  1  0  0  0  0
 18 20  1  0  0  0  0
 18 21  1  0  0  0  0
  1 22  1  0  0  0  0
 22 23  1  0  0  0  0
 22 24  1  0  0  0  0
 22 25  1  0  0  0  0
 25 26  1  0  0  0  0
 25 27  1  0  0  0  0
 25 28  1  0  0  0  0
  1 29  1  0  0  0  0
 29 30  1  0  0  0  0
 29 31  1  0  0  0  0
 29 32  1  0  0  0  0
M  END
> <ChemID>
105434

> <source_casrn>
17302-01-1

> <CAS>
17302-01-1

> <SMILES>
CCCCC(C)(CC)CC

> <NAME>
3-ETHYL-3-METHYLHEPTANE

> <preferred_name>
3-Ethyl-3-methylheptane

> <iupac>
3-Ethyl-3-methylheptane

> <MPID>
24282

> <dsstox_substance_id>
DTXSID10169495

> <Canonical_QSARr>
CCCCC(C)(CC)CC

> <InChI_Code_QSARr>
InChI=1S/C10H22/c1-5-8-9-10(4,6-2)7-3/h5-9H2,1-4H3

> <InChI Key_QSARr>
HSOMNBKXPGCNBH-UHFFFAOYSA-N

> <Salt_Solvent>
?

> <BP>
163.8

$$$$
105438
  -INDIGO-08031720192D

 24 23  0  0  0  0  0  0  0  0999 V2000
    0.8001   -1.3856    0.0000 C   0  0  0  0  0  0  0  0  0  0  0  0
    1.6000   -2.7713    0.0000 H   0  0  0  0  0  0  0  0  0  0  0  0
   -0.0000   -2.7713    0.0000 H   0  0  0  0  0  0  0  0  0  0  0  0
    2.4000   -1.3856    0.0000 H   0  0  0  0  0  0  0  0  0  0  0  0
   -0.0000    0.0000    0.0000 C   0  0  0  0  0  0  0  0  0  0  0  0
    1.5035    0.5472    0.0000 C   0  0  0  0  0  0  0  0  0  0  0  0
    3.0070    1.0944    0.0000 H   0  0  0  0  0  0  0  0  0  0  0  0
    2.7291   -0.4813    0.0000 H   0  0  0  0  0  0  0  0  0  0  0  0
    1.7814    2.1229    0.0000 H   0  0  0  0  0  0  0  0  0  0  0  0
   -0.8000    1.3856    0.0000 C   0  0  0  0  0  0  0  0  0  0  0  0
   -1.6000    2.7713    0.0000 H   0  0  0  0  0  0  0  0  0  0  0  0
   -0.0000    2.7713    0.0000 H   0  0  0  0  0  0  0  0  0  0  0  0
    0.8001    1.3856    0.0000 H   0  0  0  0  0  0  0  0  0  0  0  0
   -1.3856   -0.8000    0.0000 O   0  0  0  0  0  0  0  0  0  0  0  0
   -2.7712    0.0000    0.0000 C   0  0  0  0  0  0  0  0  0  0  0  0
   -1.9713    1.3856    0.0000 H   0  0  0  0  0  0  0  0  0  0  0  0
   -4.1570    0.8000    0.0000 C   0  0  0  0  0  0  0  0  0  0  0  0
   -5.5426    1.6000    0.0000 H   0  0  0  0  0  0  0  0  0  0  0  0
   -5.5426    0.0000    0.0000 H   0  0  0  0  0  0  0  0  0  0  0  0
   -4.1570    2.4000    0.0000 H   0  0  0  0  0  0  0  0  0  0  0  0
   -3.5713   -1.3856    0.0000 C   0  0  0  0  0  0  0  0  0  0  0  0
   -4.3713   -2.7713    0.0000 H   0  0  0  0  0  0  0  0  0  0  0  0
   -2.7712   -2.7713    0.0000 H   0  0  0  0  0  0  0  0  0  0  0  0
   -5.1713   -1.3856    0.0000 H   0  0  0  0  0  0  0  0  0  0  0  0
  1  2  1  0  0  0  0
  1  3  1  0  0  0  0
  1  4  1  0  0  0  0
  1  5  1  0  0  0  0
  5  6  1  0  0  0  0
  6  7  1  0  0  0  0
  6  8  1  0  0  0  0
  6  9  1  0  0  0  0
  5 10  1  0  0  0  0
 10 11  1  0  0  0  0
 10 12  1  0  0  0  0
 10 13  1  0  0  0  0
  5 14  1  0  0  0  0
 14 15  1  0  0  0  0
 15 16  1  0  0  0  0
 15 17  1  0  0  0  0
 17 18  1  0  0  0  0
 17 19  1  0  0  0  0
 17 20  1  0  0  0  0
 15 21  1  0  0  0  0
 21 22  1  0  0  0  0
 21 23  1  0  0  0  0
 21 24  1  0  0  0  0
M  END
> <ChemID>
105438

> <source_casrn>
17348-59-3

> <CAS>
17348-59-3

> <SMILES>
CC(C)OC(C)(C)C

> <NAME>
ISOPROPYL T-BUTYL ETHER

> <preferred_name>
tert-Butyl isopropyl ether

> <iupac>
tert-butyl isopropyl ether

> <MPID>
24286

> <dsstox_substance_id>
DTXSID4051792

> <Canonical_QSARr>
CC(C)OC(C)(C)C

> <InChI_Code_QSARr>
InChI=1S/C7H16O/c1-6(2)8-7(3,4)5/h6H,1-5H3

> <InChI Key_QSARr>
HNFSPSWQNZVCTB-UHFFFAOYSA-N

> <Salt_Solvent>
?

> <BP>
87.6

$$$$
105442
  -INDIGO-08031720192D

 14 14  0  0  0  0  0  0  0  0999 V2000
   -0.0000   -0.0000    0.0000 C   0  0  0  0  0  0  0  0  0  0  0  0
    0.8000   -1.3857    0.0000 C   0  0  0  0  0  0  0  0  0  0  0  0
    2.4000   -1.3857    0.0000 H   0  0  0  0  0  0  0  0  0  0  0  0
   -0.0000   -2.7713    0.0000 C   0  0  0  0  0  0  0  0  0  0  0  0
    0.8000   -4.1569    0.0000 H   0  0  0  0  0  0  0  0  0  0  0  0
   -1.6000   -2.7713    0.0000 C   0  0  0  0  0  0  0  0  0  0  0  0
   -2.4000   -4.1569    0.0000 H   0  0  0  0  0  0  0  0  0  0  0  0
   -2.4000   -1.3856    0.0000 C   0  0  0  0  0  0  0  0  0  0  0  0
   -4.0000   -1.3856    0.0000 H   0  0  0  0  0  0  0  0  0  0  0  0
   -1.6000   -0.0000    0.0000 C   0  0  0  0  0  0  0  0  0  0  0  0
   -2.4000    1.3856    0.0000 S   0  0  0  0  0  0  0  0  0  0  0  0
   -4.0000    1.3856    0.0000 H   0  0  0  0  0  0  0  0  0  0  0  0
    0.8000    1.3856    0.0000 S   0  0  0  0  0  0  0  0  0  0  0  0
    2.4000    1.3856    0.0000 H   0  0  0  0  0  0  0  0  0  0  0  0
  1  2  1  0  0  0  0
  2  3  1  0  0  0  0
  2  4  2  0  0  0  0
  4  5  1  0  0  0  0
  4  6  1  0  0  0  0
  6  7  1  0  0  0  0
  6  8  2  0  0  0  0
  8  9  1  0  0  0  0
  8 10  1  0  0  0  0
 10  1  2  0  0  0  0
 10 11  1  0  0  0  0
 11 12  1  0  0  0  0
  1 13  1  0  0  0  0
 13 14  1  0  0  0  0
M  END
> <ChemID>
105442

> <source_casrn>
17534-15-5

> <CAS>
NOCAS_871274

> <SMILES>
Sc1ccccc1S

> <NAME>
Benzene-1,2-dithiol

> <preferred_name>


> <iupac>


> <MPID>
24290

> <dsstox_substance_id>
DTXSID20871274

> <Canonical_QSARr>
Sc1ccccc1S

> <InChI_Code_QSARr>
InChI=1S/C6H6S2/c7-5-3-1-2-4-6(5)8/h1-4,7-8H

> <InChI Key_QSARr>
JRNVQLOKVMWBFR-UHFFFAOYSA-N

> <Salt_Solvent>
?

> <BP>
238.5

$$$$
105446
  -INDIGO-08031720192D

 31 31  0  0  0  0  0  0  0  0999 V2000
    5.3826   -3.4285    0.0000 O   0  0  0  0  0  0  0  0  0  0  0  0
    5.3826   -5.0285    0.0000 H   0  0  0  0  0  0  0  0  0  0  0  0
    3.9970   -2.6284    0.0000 C   0  0  0  0  0  0  0  0  0  0  0  0
    3.9970   -1.0285    0.0000 C   0  0  0  0  0  0  0  0  0  0  0  0
    5.3826   -0.2285    0.0000 C   0  0  0  0  0  0  0  0  0  0  0  0
    6.7682    0.5716    0.0000 H   0  0  0  0  0  0  0  0  0  0  0  0
    6.7682   -1.0285    0.0000 H   0  0  0  0  0  0  0  0  0  0  0  0
    5.3826    1.3715    0.0000 H   0  0  0  0  0  0  0  0  0  0  0  0
    2.6113   -0.2285    0.0000 C   0  0  0  0  0  0  0  0  0  0  0  0
    2.6113    1.3715    0.0000 H   0  0  0  0  0  0  0  0  0  0  0  0
    1.2257   -1.0285    0.0000 C   0  0  0  0  0  0  0  0  0  0  0  0
   -0.0001   -0.0001    0.0000 C   0  0  0  0  0  0  0  0  0  0  0  0
   -1.2256    1.0285    0.0000 C   0  0  0  0  0  0  0  0  0  0  0  0
   -2.4513    2.0569    0.0000 H   0  0  0  0  0  0  0  0  0  0  0  0
   -2.8014    0.7507    0.0000 H   0  0  0  0  0  0  0  0  0  0  0  0
   -1.2256    2.6284    0.0000 H   0  0  0  0  0  0  0  0  0  0  0  0
    1.0285    1.2257    0.0000 C   0  0  0  0  0  0  0  0  0  0  0  0
    2.0570    2.4514    0.0000 H   0  0  0  0  0  0  0  0  0  0  0  0
    0.4812    2.7292    0.0000 H   0  0  0  0  0  0  0  0  0  0  0  0
   -0.4751    1.7730    0.0000 H   0  0  0  0  0  0  0  0  0  0  0  0
   -1.0285   -1.2257    0.0000 C   0  0  0  0  0  0  0  0  0  0  0  0
   -2.6041   -0.9479    0.0000 H   0  0  0  0  0  0  0  0  0  0  0  0
   -1.8284    0.1600    0.0000 H   0  0  0  0  0  0  0  0  0  0  0  0
    0.4751   -1.7729    0.0000 H   0  0  0  0  0  0  0  0  0  0  0  0
    1.2257   -2.6284    0.0000 C   0  0  0  0  0  0  0  0  0  0  0  0
   -0.1600   -3.4285    0.0000 C   0  0  0  0  0  0  0  0  0  0  0  0
   -1.5456   -4.2285    0.0000 H   0  0  0  0  0  0  0  0  0  0  0  0
   -0.1600   -5.0285    0.0000 H   0  0  0  0  0  0  0  0  0  0  0  0
   -1.5456   -2.6284    0.0000 H   0  0  0  0  0  0  0  0  0  0  0  0
    2.6113   -3.4285    0.0000 C   0  0  0  0  0  0  0  0  0  0  0  0
    2.6113   -5.0285    0.0000 H   0  0  0  0  0  0  0  0  0  0  0  0
  1  2  1  0  0  0  0
  1  3  1  0  0  0  0
  3  4  1  0  0  0  0
  4  5  1  0  0  0  0
  5  6  1  0  0  0  0
  5  7  1  0  0  0  0
  5  8  1  0  0  0  0
  4  9  2  0  0  0  0
  9 10  1  0  0  0  0
  9 11  1  0  0  0  0
 11 12  1  0  0  0  0
 12 13  1  0  0  0  0
 13 14  1  0  0  0  0
 13 15  1  0  0  0  0
 13 16  1  0  0  0  0
 12 17  1  0  0  0  0
 17 18  1  0  0  0  0
 17 19  1  0  0  0  0
 17 20  1  0  0  0  0
 12 21  1  0  0  0  0
 21 22  1  0  0  0  0
 21 23  1  0  0  0  0
 21 24  1  0  0  0  0
 11 25  2  0  0  0  0
 25 26  1  0  0  0  0
 26 27  1  0  0  0  0
 26 28  1  0  0  0  0
 26 29  1  0  0  0  0
 25 30  1  0  0  0  0
 30  3  2  0  0  0  0
 30 31  1  0  0  0  0
M  END
> <ChemID>
105446

> <source_casrn>
17696-37-6

> <CAS>
17696-37-6

> <SMILES>
Cc1cc(c(C)cc1O)C(C)(C)C

> <NAME>
Phenol, 4-(1,1-dimethylethyl)-2,5-dimethyl-

> <preferred_name>
Phenol, 4-(1,1-dimethylethyl)-2,5-dimethyl-

> <iupac>
4-tert-butyl-2,5-dimethylphenol

> <MPID>
24294

> <dsstox_substance_id>
DTXSID5066247

> <Canonical_QSARr>
Cc1cc(c(C)cc1O)C(C)(C)C

> <InChI_Code_QSARr>
InChI=1S/C12H18O/c1-8-7-11(13)9(2)6-10(8)12(3,4)5/h6-7,13H,1-5H3

> <InChI Key_QSARr>
ZSPDNAYHQYQUPC-UHFFFAOYSA-N

> <Salt_Solvent>
?

> <BP>
264.0

$$$$
105450
  -INDIGO-08031720192D

 16 16  0  0  0  0  0  0  0  0999 V2000
    3.2000    2.7713    0.0000 O   0  0  0  0  0  0  0  0  0  0  0  0
    4.8000    2.7713    0.0000 H   0  0  0  0  0  0  0  0  0  0  0  0
    2.4001    1.3856    0.0000 C   0  0  0  0  0  0  0  0  0  0  0  0
    0.7999    1.3856    0.0000 C   0  0  0  0  0  0  0  0  0  0  0  0
    0.0000    2.7713    0.0000 Cl  0  0  0  0  0  0  0  0  0  0  0  0
    0.0000    0.0000    0.0000 C   0  0  0  0  0  0  0  0  0  0  0  0
   -1.6000    0.0000    0.0000 C   0  0  0  0  0  0  0  0  0  0  0  0
   -3.2000    0.0000    0.0000 H   0  0  0  0  0  0  0  0  0  0  0  0
   -2.4001   -1.3856    0.0000 H   0  0  0  0  0  0  0  0  0  0  0  0
   -2.4001    1.3856    0.0000 H   0  0  0  0  0  0  0  0  0  0  0  0
    0.8001   -1.3856    0.0000 C   0  0  0  0  0  0  0  0  0  0  0  0
    0.0000   -2.7713    0.0000 Cl  0  0  0  0  0  0  0  0  0  0  0  0
    2.4001   -1.3856    0.0000 C   0  0  0  0  0  0  0  0  0  0  0  0
    3.2000   -2.7713    0.0000 H   0  0  0  0  0  0  0  0  0  0  0  0
    3.2000   -0.0000    0.0000 C   0  0  0  0  0  0  0  0  0  0  0  0
    4.8000    0.0000    0.0000 H   0  0  0  0  0  0  0  0  0  0  0  0
  1  2  1  0  0  0  0
  1  3  1  0  0  0  0
  3  4  1  0  0  0  0
  4  5  1  0  0  0  0
  4  6  2  0  0  0  0
  6  7  1  0  0  0  0
  7  8  1  0  0  0  0
  7  9  1  0  0  0  0
  7 10  1  0  0  0  0
  6 11  1  0  0  0  0
 11 12  1  0  0  0  0
 11 13  2  0  0  0  0
 13 14  1  0  0  0  0
 13 15  1  0  0  0  0
 15  3  2  0  0  0  0
 15 16  1  0  0  0  0
M  END
> <ChemID>
105450

> <source_casrn>
17788-00-0

> <CAS>
17788-00-0

> <SMILES>
Cc1c(Cl)c(O)ccc1Cl

> <NAME>
Phenol, 2,4-dichloro-3-methyl-

> <preferred_name>
Phenol, 2,4-dichloro-3-methyl-

> <iupac>
2,4-Dichloro-3-methylphenol

> <MPID>
24298

> <dsstox_substance_id>
DTXSID8066264

> <Canonical_QSARr>
Cc1c(Cl)c(O)ccc1Cl

> <InChI_Code_QSARr>
InChI=1S/C7H6Cl2O/c1-4-5(8)2-3-6(10)7(4)9/h2-3,10H,1H3

> <InChI Key_QSARr>
GIXSFSVVKULPEK-UHFFFAOYSA-N

> <Salt_Solvent>
?

> <BP>
236.0

$$$$
105454
  -INDIGO-08031720192D

 24 23  0  0  0  0  0  0  0  0999 V2000
   -4.1569    0.8000    0.0000 O   0  0  0  0  0  0  0  0  0  0  0  0
   -2.7712    0.0000    0.0000 C   0  0  0  0  0  0  0  0  0  0  0  0
   -3.3836   -1.4782    0.0000 H   0  0  0  0  0  0  0  0  0  0  0  0
   -2.1590   -1.4782    0.0000 H   0  0  0  0  0  0  0  0  0  0  0  0
   -1.3857    0.8000    0.0000 C   0  0  0  0  0  0  0  0  0  0  0  0
   -0.7733    2.2782    0.0000 H   0  0  0  0  0  0  0  0  0  0  0  0
   -1.9979    2.2782    0.0000 H   0  0  0  0  0  0  0  0  0  0  0  0
    0.0000    0.0000    0.0000 C   0  0  0  0  0  0  0  0  0  0  0  0
   -0.6124   -1.4782    0.0000 H   0  0  0  0  0  0  0  0  0  0  0  0
    0.6124   -1.4782    0.0000 H   0  0  0  0  0  0  0  0  0  0  0  0
    1.3857    0.8000    0.0000 C   0  0  0  0  0  0  0  0  0  0  0  0
    1.9979    2.2782    0.0000 H   0  0  0  0  0  0  0  0  0  0  0  0
    0.7733    2.2782    0.0000 H   0  0  0  0  0  0  0  0  0  0  0  0
    2.7712    0.0000    0.0000 C   0  0  0  0  0  0  0  0  0  0  0  0
    4.1569   -0.8000    0.0000 H   0  0  0  0  0  0  0  0  0  0  0  0
    4.1569    0.8000    0.0000 H   0  0  0  0  0  0  0  0  0  0  0  0
    2.7712   -1.6000    0.0000 H   0  0  0  0  0  0  0  0  0  0  0  0
   -5.5426    0.0000    0.0000 C   0  0  0  0  0  0  0  0  0  0  0  0
   -6.1548   -1.4782    0.0000 H   0  0  0  0  0  0  0  0  0  0  0  0
   -4.9303   -1.4782    0.0000 H   0  0  0  0  0  0  0  0  0  0  0  0
   -6.9281    0.8000    0.0000 C   0  0  0  0  0  0  0  0  0  0  0  0
   -8.3138    1.6000    0.0000 H   0  0  0  0  0  0  0  0  0  0  0  0
   -8.3138    0.0000    0.0000 H   0  0  0  0  0  0  0  0  0  0  0  0
   -6.9281    2.4000    0.0000 H   0  0  0  0  0  0  0  0  0  0  0  0
  1  2  1  0  0  0  0
  2  3  1  0  0  0  0
  2  4  1  0  0  0  0
  2  5  1  0  0  0  0
  5  6  1  0  0  0  0
  5  7  1  0  0  0  0
  5  8  1  0  0  0  0
  8  9  1  0  0  0  0
  8 10  1  0  0  0  0
  8 11  1  0  0  0  0
 11 12  1  0  0  0  0
 11 13  1  0  0  0  0
 11 14  1  0  0  0  0
 14 15  1  0  0  0  0
 14 16  1  0  0  0  0
 14 17  1  0  0  0  0
  1 18  1  0  0  0  0
 18 19  1  0  0  0  0
 18 20  1  0  0  0  0
 18 21  1  0  0  0  0
 21 22  1  0  0  0  0
 21 23  1  0  0  0  0
 21 24  1  0  0  0  0
M  END
> <ChemID>
105454

> <source_casrn>
17952-11-3

> <CAS>
17952-11-3

> <SMILES>
CCCCCOCC

> <NAME>
PENTANE, 1-ETHOXY-

> <preferred_name>
Ether, ethyl pentyl

> <iupac>
1-Ethoxypentane

> <MPID>
24302

> <dsstox_substance_id>
DTXSID90170822

> <Canonical_QSARr>
CCCCCOCC

> <InChI_Code_QSARr>
InChI=1S/C7H16O/c1-3-5-6-7-8-4-2/h3-7H2,1-2H3

> <InChI Key_QSARr>
VDMXPMYSWFDBJB-UHFFFAOYSA-N

> <Salt_Solvent>
?

> <BP>
117.6

$$$$
105459
  -INDIGO-08031720192D

 17 16  0  0  0  0  0  0  0  0999 V2000
   -2.4000   -1.3856    0.0000 Br  0  0  0  0  0  0  0  0  0  0  0  0
   -0.8000   -1.3856    0.0000 C   0  0  0  0  0  0  0  0  0  0  0  0
   -1.6000   -2.7713    0.0000 H   0  0  0  0  0  0  0  0  0  0  0  0
    0.0000   -2.7713    0.0000 H   0  0  0  0  0  0  0  0  0  0  0  0
    0.0000    0.0000    0.0000 Si  0  0  0  0  0  0  0  0  0  0  0  0
    0.8000    1.3856    0.0000 C   0  0  0  0  0  0  0  0  0  0  0  0
    1.6000    2.7713    0.0000 H   0  0  0  0  0  0  0  0  0  0  0  0
    2.4000    1.3856    0.0000 H   0  0  0  0  0  0  0  0  0  0  0  0
    0.0000    2.7713    0.0000 H   0  0  0  0  0  0  0  0  0  0  0  0
   -1.3856    0.8000    0.0000 C   0  0  0  0  0  0  0  0  0  0  0  0
   -2.7713    1.6000    0.0000 H   0  0  0  0  0  0  0  0  0  0  0  0
   -2.7713    0.0000    0.0000 H   0  0  0  0  0  0  0  0  0  0  0  0
   -1.3856    2.4000    0.0000 H   0  0  0  0  0  0  0  0  0  0  0  0
    1.3856   -0.8000    0.0000 C   0  0  0  0  0  0  0  0  0  0  0  0
    2.7713   -1.6000    0.0000 H   0  0  0  0  0  0  0  0  0  0  0  0
    1.3856   -2.4000    0.0000 H   0  0  0  0  0  0  0  0  0  0  0  0
    2.7713    0.0000    0.0000 H   0  0  0  0  0  0  0  0  0  0  0  0
  1  2  1  0  0  0  0
  2  3  1  0  0  0  0
  2  4  1  0  0  0  0
  2  5  1  0  0  0  0
  5  6  1  0  0  0  0
  6  7  1  0  0  0  0
  6  8  1  0  0  0  0
  6  9  1  0  0  0  0
  5 10  1  0  0  0  0
 10 11  1  0  0  0  0
 10 12  1  0  0  0  0
 10 13  1  0  0  0  0
  5 14  1  0  0  0  0
 14 15  1  0  0  0  0
 14 16  1  0  0  0  0
 14 17  1  0  0  0  0
M  END
> <ChemID>
105459

> <source_casrn>
18243-41-9

> <CAS>
18243-41-9

> <SMILES>
C[Si](C)(C)CBr

> <NAME>
SILANE, (BROMOMETHYL)TRIMETHYL-

> <preferred_name>
Silane, (bromomethyl)trimethyl-

> <iupac>
bromomethyl-trimethylsilane

> <MPID>
24307

> <dsstox_substance_id>
DTXSID3066344

> <Canonical_QSARr>
C[Si](C)(C)CBr

> <InChI_Code_QSARr>
InChI=1S/C4H11BrSi/c1-6(2,3)4-5/h4H2,1-3H3

> <InChI Key_QSARr>
ACAUYCZBWABOLI-UHFFFAOYSA-N

> <Salt_Solvent>
?

> <BP>
116.5

$$$$
105464
  -INDIGO-08031720192D

 14 14  0  0  0  0  0  0  0  0999 V2000
   -0.8001    1.3856    0.0000 N   0  0  0  0  0  0  0  0  0  0  0  0
    0.0000   -0.0000    0.0000 C   0  0  0  0  0  0  0  0  0  0  0  0
    1.6000   -0.0000    0.0000 C   0  0  0  0  0  0  0  0  0  0  0  0
    3.2000   -0.0000    0.0000 H   0  0  0  0  0  0  0  0  0  0  0  0
    2.4001    1.3856    0.0000 H   0  0  0  0  0  0  0  0  0  0  0  0
    2.4001   -1.3856    0.0000 H   0  0  0  0  0  0  0  0  0  0  0  0
   -0.7999   -1.3856    0.0000 C   0  0  0  0  0  0  0  0  0  0  0  0
    0.0000   -2.7713    0.0000 H   0  0  0  0  0  0  0  0  0  0  0  0
   -2.4001   -1.3856    0.0000 C   0  0  0  0  0  0  0  0  0  0  0  0
   -3.2000   -2.7713    0.0000 H   0  0  0  0  0  0  0  0  0  0  0  0
   -3.2000   -0.0000    0.0000 C   0  0  0  0  0  0  0  0  0  0  0  0
   -4.8000   -0.0000    0.0000 H   0  0  0  0  0  0  0  0  0  0  0  0
   -2.4001    1.3856    0.0000 C   0  0  0  0  0  0  0  0  0  0  0  0
   -3.2000    2.7713    0.0000 Cl  0  0  0  0  0  0  0  0  0  0  0  0
  1  2  1  0  0  0  0
  2  3  1  0  0  0  0
  3  4  1  0  0  0  0
  3  5  1  0  0  0  0
  3  6  1  0  0  0  0
  2  7  2  0  0  0  0
  7  8  1  0  0  0  0
  7  9  1  0  0  0  0
  9 10  1  0  0  0  0
  9 11  2  0  0  0  0
 11 12  1  0  0  0  0
 11 13  1  0  0  0  0
 13  1  2  0  0  0  0
 13 14  1  0  0  0  0
M  END
> <ChemID>
105464

> <source_casrn>
18368-63-3

> <CAS>
18368-63-3

> <SMILES>
Cc1cccc(Cl)[n]1

> <NAME>
6-Chloro-2-picoline

> <preferred_name>
6-Chloro-2-picoline

> <iupac>
2-chloro-6-methylpyridine

> <MPID>
24311

> <dsstox_substance_id>
DTXSID0022272

> <Canonical_QSARr>
Cc1cccc(Cl)[n]1

> <InChI_Code_QSARr>
InChI=1S/C6H6ClN/c1-5-3-2-4-6(7)8-5/h2-4H,1H3

> <InChI Key_QSARr>
GXZDYRYYNXYPMQ-UHFFFAOYSA-N

> <Salt_Solvent>
?

> <BP>
183.5

$$$$
105469
  -INDIGO-08031720192D

 11 10  0  0  0  0  0  0  0  0999 V2000
    1.3856    0.8000    0.0000 C   0  0  0  0  0  0  0  0  0  0  0  0
    2.7713    1.6000    0.0000 H   0  0  0  0  0  0  0  0  0  0  0  0
    0.0000    0.0000    0.0000 C   0  0  0  0  0  0  0  0  0  0  0  0
    0.6123   -1.4782    0.0000 H   0  0  0  0  0  0  0  0  0  0  0  0
   -1.3856    0.8000    0.0000 C   0  0  0  0  0  0  0  0  0  0  0  0
   -2.7713    1.6000    0.0000 H   0  0  0  0  0  0  0  0  0  0  0  0
   -2.7713    0.0000    0.0000 H   0  0  0  0  0  0  0  0  0  0  0  0
   -1.3856    2.4000    0.0000 Cl  0  0  0  0  0  0  0  0  0  0  0  0
   -0.6123   -1.4782    0.0000 Cl  0  0  0  0  0  0  0  0  0  0  0  0
    2.7713    0.0000    0.0000 Cl  0  0  0  0  0  0  0  0  0  0  0  0
    1.3856    2.4000    0.0000 Cl  0  0  0  0  0  0  0  0  0  0  0  0
  1  2  1  0  0  0  0
  1  3  1  0  0  0  0
  3  4  1  0  0  0  0
  3  5  1  0  0  0  0
  5  6  1  0  0  0  0
  5  7  1  0  0  0  0
  5  8  1  0  0  0  0
  3  9  1  0  0  0  0
  1 10  1  0  0  0  0
  1 11  1  0  0  0  0
M  END
> <ChemID>
105469

> <source_casrn>
18495-30-2

> <CAS>
NOCAS_871284

> <SMILES>
ClC(Cl)C(Cl)CCl

> <NAME>
1,1,2,3-TETRACHLOROPROPANE

> <preferred_name>


> <iupac>


> <MPID>
24315

> <dsstox_substance_id>
DTXSID70871284

> <Canonical_QSARr>
ClC(Cl)C(Cl)CCl

> <InChI_Code_QSARr>
InChI=1S/C3H4Cl4/c4-1-2(5)3(6)7/h2-3H,1H2

> <InChI Key_QSARr>
BUQMVYQMVLAYRU-UHFFFAOYSA-N

> <Salt_Solvent>
?

> <BP>
179.5

$$$$
105473
  -INDIGO-08031720192D

 30 29  0  0  0  0  0  0  0  0999 V2000
    4.1568   -0.8000    0.0000 S   0  0  0  0  0  0  0  0  0  0  0  0
    5.5426    0.0000    0.0000 O   0  0  0  0  0  0  0  0  0  0  0  0
    6.9283   -0.8000    0.0000 C   0  0  0  0  0  0  0  0  0  0  0  0
    6.3160   -2.2782    0.0000 H   0  0  0  0  0  0  0  0  0  0  0  0
    7.5404   -2.2782    0.0000 H   0  0  0  0  0  0  0  0  0  0  0  0
    8.3138    0.0000    0.0000 C   0  0  0  0  0  0  0  0  0  0  0  0
    9.1139   -1.3856    0.0000 H   0  0  0  0  0  0  0  0  0  0  0  0
    9.6996    0.8000    0.0000 C   0  0  0  0  0  0  0  0  0  0  0  0
   11.0851    1.6000    0.0000 H   0  0  0  0  0  0  0  0  0  0  0  0
    9.6996    2.4000    0.0000 H   0  0  0  0  0  0  0  0  0  0  0  0
   11.0851    0.0000    0.0000 H   0  0  0  0  0  0  0  0  0  0  0  0
    7.5138    1.3856    0.0000 C   0  0  0  0  0  0  0  0  0  0  0  0
    6.7139    2.7713    0.0000 H   0  0  0  0  0  0  0  0  0  0  0  0
    5.9138    1.3856    0.0000 H   0  0  0  0  0  0  0  0  0  0  0  0
    8.3138    2.7713    0.0000 H   0  0  0  0  0  0  0  0  0  0  0  0
    2.7713    0.0000    0.0000 O   0  0  0  0  0  0  0  0  0  0  0  0
    1.3857   -0.8000    0.0000 C   0  0  0  0  0  0  0  0  0  0  0  0
    0.7734   -2.2782    0.0000 H   0  0  0  0  0  0  0  0  0  0  0  0
    1.9979   -2.2782    0.0000 H   0  0  0  0  0  0  0  0  0  0  0  0
    0.0000    0.0000    0.0000 C   0  0  0  0  0  0  0  0  0  0  0  0
   -0.8001   -1.3856    0.0000 H   0  0  0  0  0  0  0  0  0  0  0  0
   -1.3855    0.8000    0.0000 C   0  0  0  0  0  0  0  0  0  0  0  0
   -2.7713    1.6000    0.0000 H   0  0  0  0  0  0  0  0  0  0  0  0
   -2.7713    0.0000    0.0000 H   0  0  0  0  0  0  0  0  0  0  0  0
   -1.3855    2.4000    0.0000 H   0  0  0  0  0  0  0  0  0  0  0  0
    0.8001    1.3856    0.0000 C   0  0  0  0  0  0  0  0  0  0  0  0
    1.5999    2.7713    0.0000 H   0  0  0  0  0  0  0  0  0  0  0  0
    2.4000    1.3856    0.0000 H   0  0  0  0  0  0  0  0  0  0  0  0
    0.0000    2.7713    0.0000 H   0  0  0  0  0  0  0  0  0  0  0  0
    4.1568   -2.4000    0.0000 O   0  0  0  0  0  0  0  0  0  0  0  0
  1  2  1  0  0  0  0
  2  3  1  0  0  0  0
  3  4  1  0  0  0  0
  3  5  1  0  0  0  0
  3  6  1  0  0  0  0
  6  7  1  0  0  0  0
  6  8  1  0  0  0  0
  8  9  1  0  0  0  0
  8 10  1  0  0  0  0
  8 11  1  0  0  0  0
  6 12  1  0  0  0  0
 12 13  1  0  0  0  0
 12 14  1  0  0  0  0
 12 15  1  0  0  0  0
  1 16  1  0  0  0  0
 16 17  1  0  0  0  0
 17 18  1  0  0  0  0
 17 19  1  0  0  0  0
 17 20  1  0  0  0  0
 20 21  1  0  0  0  0
 20 22  1  0  0  0  0
 22 23  1  0  0  0  0
 22 24  1  0  0  0  0
 22 25  1  0  0  0  0
 20 26  1  0  0  0  0
 26 27  1  0  0  0  0
 26 28  1  0  0  0  0
 26 29  1  0  0  0  0
  1 30  2  0  0  0  0
M  END
> <ChemID>
105473

> <source_casrn>
18748-27-1

> <CAS>
18748-27-1

> <SMILES>
CC(C)COS(=O)OCC(C)C

> <NAME>
SULFUROUS ACID, BIS(2-METHYLPROPYL) ESTER

> <preferred_name>
Sulfurous acid, bis(2-methylpropyl) ester

> <iupac>
C8H18O3S

> <MPID>
24319

> <dsstox_substance_id>
DTXSID30337997

> <Canonical_QSARr>
CC(C)COS(=O)OCC(C)C

> <InChI_Code_QSARr>
InChI=1S/C8H18O3S/c1-7(2)5-10-12(9)11-6-8(3)4/h7-8H,5-6H2,1-4H3

> <InChI Key_QSARr>
SYKANJDVMZPZMM-UHFFFAOYSA-N

> <Salt_Solvent>
?

> <BP>
210.0

$$$$
105477
  -INDIGO-08031720192D

 21 20  0  0  0  0  0  0  0  0999 V2000
   -5.5426   -1.6000    0.0000 O   0  0  0  0  0  0  0  0  0  0  0  0
   -5.5426    0.0000    0.0000 C   0  0  0  0  0  0  0  0  0  0  0  0
   -4.1569    0.8000    0.0000 C   0  0  0  0  0  0  0  0  0  0  0  0
   -4.1569    2.4000    0.0000 H   0  0  0  0  0  0  0  0  0  0  0  0
   -2.7712    0.0000    0.0000 C   0  0  0  0  0  0  0  0  0  0  0  0
   -2.7712   -1.6000    0.0000 H   0  0  0  0  0  0  0  0  0  0  0  0
   -1.3857    0.8000    0.0000 C   0  0  0  0  0  0  0  0  0  0  0  0
   -1.9979    2.2782    0.0000 H   0  0  0  0  0  0  0  0  0  0  0  0
   -0.7733    2.2782    0.0000 H   0  0  0  0  0  0  0  0  0  0  0  0
    0.0000    0.0000    0.0000 C   0  0  0  0  0  0  0  0  0  0  0  0
    0.6124   -1.4782    0.0000 H   0  0  0  0  0  0  0  0  0  0  0  0
   -0.6124   -1.4782    0.0000 H   0  0  0  0  0  0  0  0  0  0  0  0
    1.3857    0.8000    0.0000 C   0  0  0  0  0  0  0  0  0  0  0  0
    0.7733    2.2782    0.0000 H   0  0  0  0  0  0  0  0  0  0  0  0
    1.9979    2.2782    0.0000 H   0  0  0  0  0  0  0  0  0  0  0  0
    2.7712    0.0000    0.0000 C   0  0  0  0  0  0  0  0  0  0  0  0
    4.1569   -0.8000    0.0000 H   0  0  0  0  0  0  0  0  0  0  0  0
    4.1569    0.8000    0.0000 H   0  0  0  0  0  0  0  0  0  0  0  0
    2.7712   -1.6000    0.0000 H   0  0  0  0  0  0  0  0  0  0  0  0
   -6.9281    0.8000    0.0000 O   0  0  0  0  0  0  0  0  0  0  0  0
   -8.3138    0.0000    0.0000 H   0  0  0  0  0  0  0  0  0  0  0  0
  1  2  2  0  0  0  0
  2  3  1  0  0  0  0
  3  4  1  0  0  0  0
  3  5  2  0  0  0  0
  5  6  1  0  0  0  0
  5  7  1  0  0  0  0
  7  8  1  0  0  0  0
  7  9  1  0  0  0  0
  7 10  1  0  0  0  0
 10 11  1  0  0  0  0
 10 12  1  0  0  0  0
 10 13  1  0  0  0  0
 13 14  1  0  0  0  0
 13 15  1  0  0  0  0
 13 16  1  0  0  0  0
 16 17  1  0  0  0  0
 16 18  1  0  0  0  0
 16 19  1  0  0  0  0
  2 20  1  0  0  0  0
 20 21  1  0  0  0  0
M  END
> <ChemID>
105477

> <source_casrn>
18999-28-5

> <CAS>
25377-46-2

> <SMILES>
CCCCC=CC(O)=O

> <NAME>
Hept-2-enoic acid

> <preferred_name>
Heptenoic acid

> <iupac>
?

> <MPID>
24323

> <dsstox_substance_id>
DTXSID6067090

> <Canonical_QSARr>
CCCCC=CC(O)=O

> <InChI_Code_QSARr>
InChI=1S/C7H12O2/c1-2-3-4-5-6-7(8)9/h5-6H,2-4H2,1H3,(H,8,9)/b6-5+

> <InChI Key_QSARr>
YURNCBVQZBJDAJ-AATRIKPKSA-N

> <Salt_Solvent>
?

> <BP>
226.5

$$$$
105482
  -INDIGO-08031720192D

 23 24  0  0  0  0  0  0  0  0999 V2000
   -1.5529    2.3912    0.0000 O   0  0  0  0  0  0  0  0  0  0  0  0
   -0.1672    1.5912    0.0000 C   0  0  0  0  0  0  0  0  0  0  0  0
    1.2945    2.2420    0.0000 N   0  0  0  0  0  0  0  0  0  0  0  0
    1.6271    3.8071    0.0000 H   0  0  0  0  0  0  0  0  0  0  0  0
    2.3650    1.0530    0.0000 C   0  0  0  0  0  0  0  0  0  0  0  0
    1.5651   -0.3326    0.0000 C   0  0  0  0  0  0  0  0  0  0  0  0
    2.3650   -1.7183    0.0000 C   0  0  0  0  0  0  0  0  0  0  0  0
    1.8179   -3.2218    0.0000 H   0  0  0  0  0  0  0  0  0  0  0  0
    3.9650   -1.7183    0.0000 C   0  0  0  0  0  0  0  0  0  0  0  0
    4.7651   -3.1039    0.0000 H   0  0  0  0  0  0  0  0  0  0  0  0
    4.7651   -0.3326    0.0000 C   0  0  0  0  0  0  0  0  0  0  0  0
    6.3650   -0.3326    0.0000 H   0  0  0  0  0  0  0  0  0  0  0  0
    3.9650    1.0530    0.0000 C   0  0  0  0  0  0  0  0  0  0  0  0
    4.7651    2.4386    0.0000 H   0  0  0  0  0  0  0  0  0  0  0  0
    0.0000   -0.0000    0.0000 C   0  0  0  0  0  0  0  0  0  0  0  0
   -0.1672   -1.5912    0.0000 C   0  0  0  0  0  0  0  0  0  0  0  0
   -1.6290   -2.2420    0.0000 H   0  0  0  0  0  0  0  0  0  0  0  0
   -0.3345   -3.1824    0.0000 H   0  0  0  0  0  0  0  0  0  0  0  0
    1.1272   -2.5317    0.0000 H   0  0  0  0  0  0  0  0  0  0  0  0
   -1.6001   -0.0000    0.0000 C   0  0  0  0  0  0  0  0  0  0  0  0
   -3.2000   -0.0000    0.0000 H   0  0  0  0  0  0  0  0  0  0  0  0
   -2.4000    1.3856    0.0000 H   0  0  0  0  0  0  0  0  0  0  0  0
   -2.4000   -1.3856    0.0000 H   0  0  0  0  0  0  0  0  0  0  0  0
  1  2  2  0  0  0  0
  2  3  1  0  0  0  0
  3  4  1  0  0  0  0
  3  5  1  0  0  0  0
  5  6  1  0  0  0  0
  6  7  2  0  0  0  0
  7  8  1  0  0  0  0
  7  9  1  0  0  0  0
  9 10  1  0  0  0  0
  9 11  2  0  0  0  0
 11 12  1  0  0  0  0
 11 13  1  0  0  0  0
 13  5  2  0  0  0  0
 13 14  1  0  0  0  0
  6 15  1  0  0  0  0
 15  2  1  0  0  0  0
 15 16  1  0  0  0  0
 16 17  1  0  0  0  0
 16 18  1  0  0  0  0
 16 19  1  0  0  0  0
 15 20  1  0  0  0  0
 20 21  1  0  0  0  0
 20 22  1  0  0  0  0
 20 23  1  0  0  0  0
M  END
> <ChemID>
105482

> <source_casrn>
19155-24-9

> <CAS>
19155-24-9

> <SMILES>
CC1(C)C(=O)Nc2ccccc12

> <NAME>
2H-INDOL-2-ONE, 1,3-DIHYDRO-3,3-DIMETHYL-

> <preferred_name>
3,3-dimethylindolin-2-one

> <iupac>
C10H11NO

> <MPID>
24327

> <dsstox_substance_id>
DTXSID20310375

> <Canonical_QSARr>
CC1(C)C(=O)Nc2ccccc12

> <InChI_Code_QSARr>
InChI=1S/C10H11NO/c1-10(2)7-5-3-4-6-8(7)11-9(10)12/h3-6H,1-2H3,(H,11,12)

> <InChI Key_QSARr>
KEZHRKOVLKUYCQ-UHFFFAOYSA-N

> <Salt_Solvent>
?

> <BP>
300.0

$$$$
105486
  -INDIGO-08031720192D

 20 20  0  0  0  0  0  0  0  0999 V2000
    2.7107    0.5762    0.0000 O   0  0  0  0  0  0  0  0  0  0  0  0
    4.2323    0.0818    0.0000 C   0  0  0  0  0  0  0  0  0  0  0  0
    5.7541   -0.4127    0.0000 H   0  0  0  0  0  0  0  0  0  0  0  0
    5.4215    1.1523    0.0000 H   0  0  0  0  0  0  0  0  0  0  0  0
    4.5651   -1.4833    0.0000 H   0  0  0  0  0  0  0  0  0  0  0  0
    1.5216   -0.4944    0.0000 C   0  0  0  0  0  0  0  0  0  0  0  0
    1.2300   -2.0677    0.0000 H   0  0  0  0  0  0  0  0  0  0  0  0
    2.4279   -1.8130    0.0000 H   0  0  0  0  0  0  0  0  0  0  0  0
    0.0000    0.0000    0.0000 C   0  0  0  0  0  0  0  0  0  0  0  0
    0.6508    1.4617    0.0000 H   0  0  0  0  0  0  0  0  0  0  0  0
   -0.3326   -1.5651    0.0000 O   0  0  0  0  0  0  0  0  0  0  0  0
   -1.9239   -1.7322    0.0000 C   0  0  0  0  0  0  0  0  0  0  0  0
   -1.5913   -3.2973    0.0000 H   0  0  0  0  0  0  0  0  0  0  0  0
   -3.4456   -2.2267    0.0000 H   0  0  0  0  0  0  0  0  0  0  0  0
   -2.5746   -0.2706    0.0000 C   0  0  0  0  0  0  0  0  0  0  0  0
   -3.9603   -1.0706    0.0000 H   0  0  0  0  0  0  0  0  0  0  0  0
   -3.5152    1.0238    0.0000 H   0  0  0  0  0  0  0  0  0  0  0  0
   -1.3857    0.8000    0.0000 C   0  0  0  0  0  0  0  0  0  0  0  0
   -2.5746    1.8706    0.0000 H   0  0  0  0  0  0  0  0  0  0  0  0
   -0.4451    2.0944    0.0000 H   0  0  0  0  0  0  0  0  0  0  0  0
  1  2  1  0  0  0  0
  2  3  1  0  0  0  0
  2  4  1  0  0  0  0
  2  5  1  0  0  0  0
  1  6  1  0  0  0  0
  6  7  1  0  0  0  0
  6  8  1  0  0  0  0
  6  9  1  0  0  0  0
  9 10  1  0  0  0  0
  9 11  1  0  0  0  0
 11 12  1  0  0  0  0
 12 13  1  0  0  0  0
 12 14  1  0  0  0  0
 12 15  1  0  0  0  0
 15 16  1  0  0  0  0
 15 17  1  0  0  0  0
 15 18  1  0  0  0  0
 18  9  1  0  0  0  0
 18 19  1  0  0  0  0
 18 20  1  0  0  0  0
M  END
> <ChemID>
105486

> <source_casrn>
19354-27-9

> <CAS>
NOCAS_871290

> <SMILES>
COCC1CCCO1

> <NAME>
METHYL TETRAHYDROFURFURYL ETHER

> <preferred_name>


> <iupac>


> <MPID>
24331

> <dsstox_substance_id>
DTXSID80871290

> <Canonical_QSARr>
COCC1CCCO1

> <InChI_Code_QSARr>
InChI=1S/C6H12O2/c1-7-5-6-3-2-4-8-6/h6H,2-5H2,1H3

> <InChI Key_QSARr>
IEOPZUMPHCZMCS-UHFFFAOYSA-N

> <Salt_Solvent>
?

> <BP>
140.0

$$$$
105490
  -INDIGO-08031720192D

 32 31  0  0  0  0  0  0  0  0999 V2000
   -0.0001   -0.0000    0.0000 C   0  0  0  0  0  0  0  0  0  0  0  0
    0.8000   -1.3857    0.0000 H   0  0  0  0  0  0  0  0  0  0  0  0
    1.3857    0.8000    0.0000 C   0  0  0  0  0  0  0  0  0  0  0  0
    0.5857    2.1857    0.0000 H   0  0  0  0  0  0  0  0  0  0  0  0
    2.7713    1.6000    0.0000 C   0  0  0  0  0  0  0  0  0  0  0  0
    3.3836    3.0782    0.0000 H   0  0  0  0  0  0  0  0  0  0  0  0
    2.1591    3.0782    0.0000 H   0  0  0  0  0  0  0  0  0  0  0  0
    4.2747    1.0528    0.0000 C   0  0  0  0  0  0  0  0  0  0  0  0
    5.7783    0.5055    0.0000 H   0  0  0  0  0  0  0  0  0  0  0  0
    5.5005    2.0813    0.0000 H   0  0  0  0  0  0  0  0  0  0  0  0
    4.5527   -0.5230    0.0000 H   0  0  0  0  0  0  0  0  0  0  0  0
    2.1856   -0.5856    0.0000 C   0  0  0  0  0  0  0  0  0  0  0  0
    3.6639   -1.1979    0.0000 H   0  0  0  0  0  0  0  0  0  0  0  0
    3.6639    0.0266    0.0000 H   0  0  0  0  0  0  0  0  0  0  0  0
    1.9078   -2.1614    0.0000 C   0  0  0  0  0  0  0  0  0  0  0  0
    1.6300   -3.7370    0.0000 H   0  0  0  0  0  0  0  0  0  0  0  0
    3.1334   -3.1898    0.0000 H   0  0  0  0  0  0  0  0  0  0  0  0
    0.4042   -2.7086    0.0000 H   0  0  0  0  0  0  0  0  0  0  0  0
   -1.3857   -0.8000    0.0000 C   0  0  0  0  0  0  0  0  0  0  0  0
   -1.9979   -2.2782    0.0000 H   0  0  0  0  0  0  0  0  0  0  0  0
   -0.7734   -2.2782    0.0000 H   0  0  0  0  0  0  0  0  0  0  0  0
   -2.8891   -0.2528    0.0000 C   0  0  0  0  0  0  0  0  0  0  0  0
   -4.3927    0.2945    0.0000 H   0  0  0  0  0  0  0  0  0  0  0  0
   -4.1149   -1.2813    0.0000 H   0  0  0  0  0  0  0  0  0  0  0  0
   -3.1671    1.3230    0.0000 H   0  0  0  0  0  0  0  0  0  0  0  0
   -0.8000    1.3856    0.0000 C   0  0  0  0  0  0  0  0  0  0  0  0
   -2.2782    1.9979    0.0000 H   0  0  0  0  0  0  0  0  0  0  0  0
   -2.2782    0.7734    0.0000 H   0  0  0  0  0  0  0  0  0  0  0  0
   -0.5222    2.9614    0.0000 C   0  0  0  0  0  0  0  0  0  0  0  0
   -0.2443    4.5370    0.0000 H   0  0  0  0  0  0  0  0  0  0  0  0
   -1.7478    3.9898    0.0000 H   0  0  0  0  0  0  0  0  0  0  0  0
    0.9814    3.5086    0.0000 H   0  0  0  0  0  0  0  0  0  0  0  0
  1  2  1  0  0  0  0
  1  3  1  0  0  0  0
  3  4  1  0  0  0  0
  3  5  1  0  0  0  0
  5  6  1  0  0  0  0
  5  7  1  0  0  0  0
  5  8  1  0  0  0  0
  8  9  1  0  0  0  0
  8 10  1  0  0  0  0
  8 11  1  0  0  0  0
  3 12  1  0  0  0  0
 12 13  1  0  0  0  0
 12 14  1  0  0  0  0
 12 15  1  0  0  0  0
 15 16  1  0  0  0  0
 15 17  1  0  0  0  0
 15 18  1  0  0  0  0
  1 19  1  0  0  0  0
 19 20  1  0  0  0  0
 19 21  1  0  0  0  0
 19 22  1  0  0  0  0
 22 23  1  0  0  0  0
 22 24  1  0  0  0  0
 22 25  1  0  0  0  0
  1 26  1  0  0  0  0
 26 27  1  0  0  0  0
 26 28  1  0  0  0  0
 26 29  1  0  0  0  0
 29 30  1  0  0  0  0
 29 31  1  0  0  0  0
 29 32  1  0  0  0  0
M  END
> <ChemID>
105490

> <source_casrn>
19398-77-7

> <CAS>
19398-77-7

> <SMILES>
CCC(CC)C(CC)CC

> <NAME>
Hexane, 3,4-diethyl-

> <preferred_name>
Hexane, 3,4-diethyl-

> <iupac>
3,4-Diethylhexane

> <MPID>
24335

> <dsstox_substance_id>
DTXSID7066485

> <Canonical_QSARr>
CCC(CC)C(CC)CC

> <InChI_Code_QSARr>
InChI=1S/C10H22/c1-5-9(6-2)10(7-3)8-4/h9-10H,5-8H2,1-4H3

> <InChI Key_QSARr>
VBZCRMTUDYIWIH-UHFFFAOYSA-N

> <Salt_Solvent>
?

> <BP>
163.9

$$$$
105494
  -INDIGO-08031720192D

 42 41  0  0  0  0  0  0  0  0999 V2000
    0.0000   -0.0000    0.0000 C   0  0  0  0  0  0  0  0  0  0  0  0
    0.6124   -1.4782    0.0000 H   0  0  0  0  0  0  0  0  0  0  0  0
   -0.6124   -1.4782    0.0000 H   0  0  0  0  0  0  0  0  0  0  0  0
    1.3856    0.8000    0.0000 C   0  0  0  0  0  0  0  0  0  0  0  0
    0.7732    2.2782    0.0000 H   0  0  0  0  0  0  0  0  0  0  0  0
    1.9981    2.2782    0.0000 H   0  0  0  0  0  0  0  0  0  0  0  0
    2.7713   -0.0000    0.0000 C   0  0  0  0  0  0  0  0  0  0  0  0
    3.3837   -1.4782    0.0000 H   0  0  0  0  0  0  0  0  0  0  0  0
    2.1589   -1.4782    0.0000 H   0  0  0  0  0  0  0  0  0  0  0  0
    4.1569    0.8000    0.0000 C   0  0  0  0  0  0  0  0  0  0  0  0
    3.5445    2.2782    0.0000 H   0  0  0  0  0  0  0  0  0  0  0  0
    4.7693    2.2782    0.0000 H   0  0  0  0  0  0  0  0  0  0  0  0
    5.5426   -0.0000    0.0000 C   0  0  0  0  0  0  0  0  0  0  0  0
    6.1550   -1.4782    0.0000 H   0  0  0  0  0  0  0  0  0  0  0  0
    4.9301   -1.4782    0.0000 H   0  0  0  0  0  0  0  0  0  0  0  0
    6.9282    0.8000    0.0000 C   0  0  0  0  0  0  0  0  0  0  0  0
    6.3158    2.2782    0.0000 H   0  0  0  0  0  0  0  0  0  0  0  0
    7.5406    2.2782    0.0000 H   0  0  0  0  0  0  0  0  0  0  0  0
    8.3138   -0.0000    0.0000 C   0  0  0  0  0  0  0  0  0  0  0  0
    8.9263   -1.4782    0.0000 H   0  0  0  0  0  0  0  0  0  0  0  0
    7.7014   -1.4782    0.0000 H   0  0  0  0  0  0  0  0  0  0  0  0
    9.6995    0.8000    0.0000 S   0  0  0  0  0  0  0  0  0  0  0  0
   11.0851   -0.0000    0.0000 H   0  0  0  0  0  0  0  0  0  0  0  0
   -1.3856    0.8000    0.0000 C   0  0  0  0  0  0  0  0  0  0  0  0
   -1.9981    2.2782    0.0000 H   0  0  0  0  0  0  0  0  0  0  0  0
   -0.7732    2.2782    0.0000 H   0  0  0  0  0  0  0  0  0  0  0  0
   -2.7713   -0.0000    0.0000 C   0  0  0  0  0  0  0  0  0  0  0  0
   -2.1589   -1.4782    0.0000 H   0  0  0  0  0  0  0  0  0  0  0  0
   -3.3837   -1.4782    0.0000 H   0  0  0  0  0  0  0  0  0  0  0  0
   -4.1569    0.8000    0.0000 C   0  0  0  0  0  0  0  0  0  0  0  0
   -4.7693    2.2782    0.0000 H   0  0  0  0  0  0  0  0  0  0  0  0
   -3.5445    2.2782    0.0000 H   0  0  0  0  0  0  0  0  0  0  0  0
   -5.5426   -0.0000    0.0000 C   0  0  0  0  0  0  0  0  0  0  0  0
   -4.9301   -1.4782    0.0000 H   0  0  0  0  0  0  0  0  0  0  0  0
   -6.1550   -1.4782    0.0000 H   0  0  0  0  0  0  0  0  0  0  0  0
   -6.9282    0.8000    0.0000 C   0  0  0  0  0  0  0  0  0  0  0  0
   -7.5406    2.2782    0.0000 H   0  0  0  0  0  0  0  0  0  0  0  0
   -6.3158    2.2782    0.0000 H   0  0  0  0  0  0  0  0  0  0  0  0
   -8.3138   -0.0000    0.0000 C   0  0  0  0  0  0  0  0  0  0  0  0
   -9.6995   -0.8000    0.0000 H   0  0  0  0  0  0  0  0  0  0  0  0
   -9.6995    0.8000    0.0000 H   0  0  0  0  0  0  0  0  0  0  0  0
   -8.3138   -1.6000    0.0000 H   0  0  0  0  0  0  0  0  0  0  0  0
  1  2  1  0  0  0  0
  1  3  1  0  0  0  0
  1  4  1  0  0  0  0
  4  5  1  0  0  0  0
  4  6  1  0  0  0  0
  4  7  1  0  0  0  0
  7  8  1  0  0  0  0
  7  9  1  0  0  0  0
  7 10  1  0  0  0  0
 10 11  1  0  0  0  0
 10 12  1  0  0  0  0
 10 13  1  0  0  0  0
 13 14  1  0  0  0  0
 13 15  1  0  0  0  0
 13 16  1  0  0  0  0
 16 17  1  0  0  0  0
 16 18  1  0  0  0  0
 16 19  1  0  0  0  0
 19 20  1  0  0  0  0
 19 21  1  0  0  0  0
 19 22  1  0  0  0  0
 22 23  1  0  0  0  0
  1 24  1  0  0  0  0
 24 25  1  0  0  0  0
 24 26  1  0  0  0  0
 24 27  1  0  0  0  0
 27 28  1  0  0  0  0
 27 29  1  0  0  0  0
 27 30  1  0  0  0  0
 30 31  1  0  0  0  0
 30 32  1  0  0  0  0
 30 33  1  0  0  0  0
 33 34  1  0  0  0  0
 33 35  1  0  0  0  0
 33 36  1  0  0  0  0
 36 37  1  0  0  0  0
 36 38  1  0  0  0  0
 36 39  1  0  0  0  0
 39 40  1  0  0  0  0
 39 41  1  0  0  0  0
 39 42  1  0  0  0  0
M  END
> <ChemID>
105494

> <source_casrn>
19484-26-5

> <CAS>
19484-26-5

> <SMILES>
CCCCCCCCCCCCCS

> <NAME>
1-TRIDECANETHIOL

> <preferred_name>
1-Tridecanethiol

> <iupac>
tridecane-1-thiol

> <MPID>
24339

> <dsstox_substance_id>
DTXSID8066501

> <Canonical_QSARr>
CCCCCCCCCCCCCS

> <InChI_Code_QSARr>
InChI=1S/C13H28S/c1-2-3-4-5-6-7-8-9-10-11-12-13-14/h14H,2-13H2,1H3

> <InChI Key_QSARr>
IPBROXKVGHZHJV-UHFFFAOYSA-N

> <Salt_Solvent>
?

> <BP>
290.8

$$$$
105499
  -INDIGO-08031720192D

 28 27  0  0  0  0  0  0  0  0999 V2000
    2.7713    0.0000    0.0000 C   0  0  0  0  0  0  0  0  0  0  0  0
    4.1569   -0.8000    0.0000 H   0  0  0  0  0  0  0  0  0  0  0  0
    4.1569    0.8000    0.0000 H   0  0  0  0  0  0  0  0  0  0  0  0
    2.7713   -1.6000    0.0000 H   0  0  0  0  0  0  0  0  0  0  0  0
    1.3856   -0.8000    0.0000 C   0  0  0  0  0  0  0  0  0  0  0  0
    0.7733   -2.2782    0.0000 H   0  0  0  0  0  0  0  0  0  0  0  0
    1.9979   -2.2782    0.0000 H   0  0  0  0  0  0  0  0  0  0  0  0
   -0.0001    0.0000    0.0000 C   0  0  0  0  0  0  0  0  0  0  0  0
   -0.8000   -1.3857    0.0000 H   0  0  0  0  0  0  0  0  0  0  0  0
   -1.3856    0.8000    0.0000 C   0  0  0  0  0  0  0  0  0  0  0  0
   -2.7712    0.0000    0.0000 C   0  0  0  0  0  0  0  0  0  0  0  0
   -1.9713   -1.3857    0.0000 H   0  0  0  0  0  0  0  0  0  0  0  0
   -4.1569   -0.8000    0.0000 C   0  0  0  0  0  0  0  0  0  0  0  0
   -4.7692   -2.2782    0.0000 H   0  0  0  0  0  0  0  0  0  0  0  0
   -3.5446   -2.2782    0.0000 H   0  0  0  0  0  0  0  0  0  0  0  0
   -5.5425    0.0000    0.0000 C   0  0  0  0  0  0  0  0  0  0  0  0
   -6.9282   -0.8000    0.0000 H   0  0  0  0  0  0  0  0  0  0  0  0
   -6.9282    0.8000    0.0000 H   0  0  0  0  0  0  0  0  0  0  0  0
   -5.5425   -1.6000    0.0000 H   0  0  0  0  0  0  0  0  0  0  0  0
   -3.5713    1.3856    0.0000 C   0  0  0  0  0  0  0  0  0  0  0  0
   -4.3714    2.7713    0.0000 H   0  0  0  0  0  0  0  0  0  0  0  0
   -5.1713    1.3856    0.0000 H   0  0  0  0  0  0  0  0  0  0  0  0
   -2.7712    2.7713    0.0000 H   0  0  0  0  0  0  0  0  0  0  0  0
   -1.3856    2.4000    0.0000 O   0  0  0  0  0  0  0  0  0  0  0  0
    0.8000    1.3856    0.0000 C   0  0  0  0  0  0  0  0  0  0  0  0
    1.6001    2.7713    0.0000 H   0  0  0  0  0  0  0  0  0  0  0  0
    2.4000    1.3856    0.0000 H   0  0  0  0  0  0  0  0  0  0  0  0
   -0.0001    2.7713    0.0000 H   0  0  0  0  0  0  0  0  0  0  0  0
  1  2  1  0  0  0  0
  1  3  1  0  0  0  0
  1  4  1  0  0  0  0
  1  5  1  0  0  0  0
  5  6  1  0  0  0  0
  5  7  1  0  0  0  0
  5  8  1  0  0  0  0
  8  9  1  0  0  0  0
  8 10  1  0  0  0  0
 10 11  1  0  0  0  0
 11 12  1  0  0  0  0
 11 13  1  0  0  0  0
 13 14  1  0  0  0  0
 13 15  1  0  0  0  0
 13 16  1  0  0  0  0
 16 17  1  0  0  0  0
 16 18  1  0  0  0  0
 16 19  1  0  0  0  0
 11 20  1  0  0  0  0
 20 21  1  0  0  0  0
 20 22  1  0  0  0  0
 20 23  1  0  0  0  0
 10 24  2  0  0  0  0
  8 25  1  0  0  0  0
 25 26  1  0  0  0  0
 25 27  1  0  0  0  0
 25 28  1  0  0  0  0
M  END
> <ChemID>
105499

> <source_casrn>
19549-84-9

> <CAS>
NOCAS_871297

> <SMILES>
CC(CC)C(=O)C(C)CC

> <NAME>
3,5-Dimethyl-heptan-4-one

> <preferred_name>


> <iupac>


> <MPID>
24343

> <dsstox_substance_id>
DTXSID00871297

> <Canonical_QSARr>
CC(CC)C(=O)C(C)CC

> <InChI_Code_QSARr>
InChI=1S/C9H18O/c1-5-7(3)9(10)8(4)6-2/h7-8H,5-6H2,1-4H3

> <InChI Key_QSARr>
VZXXYILNWWRSGE-UHFFFAOYSA-N

> <Salt_Solvent>
?

> <BP>
162.0

$$$$
105503
  -INDIGO-08031720192D

 25 24  0  0  0  0  0  0  0  0999 V2000
    4.2748    0.5472    0.0000 C   0  0  0  0  0  0  0  0  0  0  0  0
    5.6604    1.3473    0.0000 H   0  0  0  0  0  0  0  0  0  0  0  0
    5.6604   -0.2528    0.0000 H   0  0  0  0  0  0  0  0  0  0  0  0
    4.2748    2.1472    0.0000 H   0  0  0  0  0  0  0  0  0  0  0  0
    2.8892    1.3473    0.0000 C   0  0  0  0  0  0  0  0  0  0  0  0
    1.5035    0.5472    0.0000 C   0  0  0  0  0  0  0  0  0  0  0  0
    0.7034    1.9328    0.0000 H   0  0  0  0  0  0  0  0  0  0  0  0
   -0.0000   -0.0000    0.0000 C   0  0  0  0  0  0  0  0  0  0  0  0
    0.8001   -1.3857    0.0000 H   0  0  0  0  0  0  0  0  0  0  0  0
   -1.3857   -0.8000    0.0000 C   0  0  0  0  0  0  0  0  0  0  0  0
   -1.9980   -2.2782    0.0000 H   0  0  0  0  0  0  0  0  0  0  0  0
   -0.7733   -2.2782    0.0000 H   0  0  0  0  0  0  0  0  0  0  0  0
   -2.7712   -0.0000    0.0000 C   0  0  0  0  0  0  0  0  0  0  0  0
   -4.1569   -0.8000    0.0000 H   0  0  0  0  0  0  0  0  0  0  0  0
   -4.1569    0.8000    0.0000 H   0  0  0  0  0  0  0  0  0  0  0  0
   -2.7712   -1.6000    0.0000 H   0  0  0  0  0  0  0  0  0  0  0  0
   -0.8000    1.3856    0.0000 C   0  0  0  0  0  0  0  0  0  0  0  0
   -1.5999    2.7713    0.0000 H   0  0  0  0  0  0  0  0  0  0  0  0
   -2.4000    1.3856    0.0000 H   0  0  0  0  0  0  0  0  0  0  0  0
   -0.0000    2.7713    0.0000 H   0  0  0  0  0  0  0  0  0  0  0  0
    2.3035   -0.8384    0.0000 C   0  0  0  0  0  0  0  0  0  0  0  0
    3.1034   -2.2241    0.0000 H   0  0  0  0  0  0  0  0  0  0  0  0
    3.9035   -0.8384    0.0000 H   0  0  0  0  0  0  0  0  0  0  0  0
    1.5035   -2.2241    0.0000 H   0  0  0  0  0  0  0  0  0  0  0  0
    2.8892    2.9472    0.0000 O   0  0  0  0  0  0  0  0  0  0  0  0
  1  2  1  0  0  0  0
  1  3  1  0  0  0  0
  1  4  1  0  0  0  0
  1  5  1  0  0  0  0
  5  6  1  0  0  0  0
  6  7  1  0  0  0  0
  6  8  1  0  0  0  0
  8  9  1  0  0  0  0
  8 10  1  0  0  0  0
 10 11  1  0  0  0  0
 10 12  1  0  0  0  0
 10 13  1  0  0  0  0
 13 14  1  0  0  0  0
 13 15  1  0  0  0  0
 13 16  1  0  0  0  0
  8 17  1  0  0  0  0
 17 18  1  0  0  0  0
 17 19  1  0  0  0  0
 17 20  1  0  0  0  0
  6 21  1  0  0  0  0
 21 22  1  0  0  0  0
 21 23  1  0  0  0  0
 21 24  1  0  0  0  0
  5 25  2  0  0  0  0
M  END
> <ChemID>
105503

> <source_casrn>
19550-10-8

> <CAS>
NOCAS_871301

> <SMILES>
CCC(C)C(C)C(C)=O

> <NAME>
2-HEXANONE, 3,4-DIMETHYL-

> <preferred_name>


> <iupac>


> <MPID>
24347

> <dsstox_substance_id>
DTXSID30871301

> <Canonical_QSARr>
CCC(C)C(C)C(C)=O

> <InChI_Code_QSARr>
InChI=1S/C8H16O/c1-5-6(2)7(3)8(4)9/h6-7H,5H2,1-4H3

> <InChI Key_QSARr>
YGXOERUAAWTDEV-UHFFFAOYSA-N

> <Salt_Solvent>
?

> <BP>
158.0

$$$$
105507
  -INDIGO-08031720192D

 30 29  0  0  0  0  0  0  0  0999 V2000
    9.6994    0.8000    0.0000 C   0  0  0  0  0  0  0  0  0  0  0  0
   11.0851    1.6000    0.0000 H   0  0  0  0  0  0  0  0  0  0  0  0
   11.0851    0.0000    0.0000 H   0  0  0  0  0  0  0  0  0  0  0  0
    9.6994    2.4000    0.0000 H   0  0  0  0  0  0  0  0  0  0  0  0
    8.3139    0.0000    0.0000 C   0  0  0  0  0  0  0  0  0  0  0  0
    8.9261   -1.4782    0.0000 H   0  0  0  0  0  0  0  0  0  0  0  0
    7.7016   -1.4782    0.0000 H   0  0  0  0  0  0  0  0  0  0  0  0
    6.9282    0.8000    0.0000 C   0  0  0  0  0  0  0  0  0  0  0  0
    6.3159    2.2782    0.0000 H   0  0  0  0  0  0  0  0  0  0  0  0
    7.5404    2.2782    0.0000 H   0  0  0  0  0  0  0  0  0  0  0  0
    5.5425    0.0000    0.0000 C   0  0  0  0  0  0  0  0  0  0  0  0
    5.5425   -1.6000    0.0000 H   0  0  0  0  0  0  0  0  0  0  0  0
    4.1568    0.8000    0.0000 C   0  0  0  0  0  0  0  0  0  0  0  0
    4.1568    2.4000    0.0000 H   0  0  0  0  0  0  0  0  0  0  0  0
    2.7714    0.0000    0.0000 C   0  0  0  0  0  0  0  0  0  0  0  0
    3.3835   -1.4782    0.0000 H   0  0  0  0  0  0  0  0  0  0  0  0
    2.1590   -1.4782    0.0000 H   0  0  0  0  0  0  0  0  0  0  0  0
    1.3857    0.8000    0.0000 C   0  0  0  0  0  0  0  0  0  0  0  0
    0.7733    2.2782    0.0000 H   0  0  0  0  0  0  0  0  0  0  0  0
    1.9980    2.2782    0.0000 H   0  0  0  0  0  0  0  0  0  0  0  0
   -0.0000    0.0000    0.0000 C   0  0  0  0  0  0  0  0  0  0  0  0
    0.6123   -1.4782    0.0000 H   0  0  0  0  0  0  0  0  0  0  0  0
   -0.6122   -1.4782    0.0000 H   0  0  0  0  0  0  0  0  0  0  0  0
   -1.3857    0.8000    0.0000 C   0  0  0  0  0  0  0  0  0  0  0  0
   -1.9979    2.2782    0.0000 H   0  0  0  0  0  0  0  0  0  0  0  0
   -0.7734    2.2782    0.0000 H   0  0  0  0  0  0  0  0  0  0  0  0
   -2.7712    0.0000    0.0000 C   0  0  0  0  0  0  0  0  0  0  0  0
   -4.1569   -0.8000    0.0000 H   0  0  0  0  0  0  0  0  0  0  0  0
   -4.1569    0.8000    0.0000 H   0  0  0  0  0  0  0  0  0  0  0  0
   -2.7712   -1.6000    0.0000 H   0  0  0  0  0  0  0  0  0  0  0  0
  1  2  1  0  0  0  0
  1  3  1  0  0  0  0
  1  4  1  0  0  0  0
  1  5  1  0  0  0  0
  5  6  1  0  0  0  0
  5  7  1  0  0  0  0
  5  8  1  0  0  0  0
  8  9  1  0  0  0  0
  8 10  1  0  0  0  0
  8 11  1  0  0  0  0
 11 12  1  0  0  0  0
 11 13  2  0  0  0  0
 13 14  1  0  0  0  0
 13 15  1  0  0  0  0
 15 16  1  0  0  0  0
 15 17  1  0  0  0  0
 15 18  1  0  0  0  0
 18 19  1  0  0  0  0
 18 20  1  0  0  0  0
 18 21  1  0  0  0  0
 21 22  1  0  0  0  0
 21 23  1  0  0  0  0
 21 24  1  0  0  0  0
 24 25  1  0  0  0  0
 24 26  1  0  0  0  0
 24 27  1  0  0  0  0
 27 28  1  0  0  0  0
 27 29  1  0  0  0  0
 27 30  1  0  0  0  0
M  END
> <ChemID>
105507

> <source_casrn>
19689-18-0

> <CAS>
19689-18-0

> <SMILES>
CCCC=CCCCCC

> <NAME>
4-DECENE

> <preferred_name>


> <iupac>


> <MPID>
24351

> <dsstox_substance_id>
DTXSID50876156

> <Canonical_QSARr>
CCCC=CCCCCC

> <InChI_Code_QSARr>
InChI=1S/C10H20/c1-3-5-7-9-10-8-6-4-2/h7,9H,3-6,8,10H2,1-2H3/b9-7+

> <InChI Key_QSARr>
SOVOPSCRHKEUNJ-VQHVLOKHSA-N

> <Salt_Solvent>
?

> <BP>
170.6

$$$$
105511
  -INDIGO-08031720192D

 69 69  0  0  0  0  0  0  0  0999 V2000
   -0.0001   -0.0000    0.0000 C   0  0  0  0  0  0  0  0  0  0  0  0
    1.2256   -1.0284    0.0000 H   0  0  0  0  0  0  0  0  0  0  0  0
   -0.7999    1.3856    0.0000 C   0  0  0  0  0  0  0  0  0  0  0  0
    0.7757    1.6635    0.0000 H   0  0  0  0  0  0  0  0  0  0  0  0
   -1.0777    2.9614    0.0000 H   0  0  0  0  0  0  0  0  0  0  0  0
   -2.3998    1.3856    0.0000 C   0  0  0  0  0  0  0  0  0  0  0  0
   -2.1220    2.9614    0.0000 H   0  0  0  0  0  0  0  0  0  0  0  0
   -3.9037    1.9329    0.0000 H   0  0  0  0  0  0  0  0  0  0  0  0
   -3.2000   -0.0000    0.0000 C   0  0  0  0  0  0  0  0  0  0  0  0
   -4.4257    1.0285    0.0000 H   0  0  0  0  0  0  0  0  0  0  0  0
   -4.4257   -1.0284    0.0000 H   0  0  0  0  0  0  0  0  0  0  0  0
   -2.3998   -1.3856    0.0000 C   0  0  0  0  0  0  0  0  0  0  0  0
   -3.9037   -1.9328    0.0000 H   0  0  0  0  0  0  0  0  0  0  0  0
   -2.1220   -2.9613    0.0000 H   0  0  0  0  0  0  0  0  0  0  0  0
   -0.7999   -1.3856    0.0000 C   0  0  0  0  0  0  0  0  0  0  0  0
   -1.0777   -2.9613    0.0000 H   0  0  0  0  0  0  0  0  0  0  0  0
    0.7036   -1.9328    0.0000 H   0  0  0  0  0  0  0  0  0  0  0  0
    1.2256    1.0285    0.0000 C   0  0  0  0  0  0  0  0  0  0  0  0
    0.3661    2.3778    0.0000 H   0  0  0  0  0  0  0  0  0  0  0  0
    1.5719    2.5906    0.0000 H   0  0  0  0  0  0  0  0  0  0  0  0
    2.7291    0.4813    0.0000 C   0  0  0  0  0  0  0  0  0  0  0  0
    3.5890   -0.8682    0.0000 H   0  0  0  0  0  0  0  0  0  0  0  0
    2.3827   -1.0809    0.0000 H   0  0  0  0  0  0  0  0  0  0  0  0
    3.9548    1.5096    0.0000 C   0  0  0  0  0  0  0  0  0  0  0  0
    3.0953    2.8591    0.0000 H   0  0  0  0  0  0  0  0  0  0  0  0
    4.3011    3.0717    0.0000 H   0  0  0  0  0  0  0  0  0  0  0  0
    5.4583    0.9624    0.0000 C   0  0  0  0  0  0  0  0  0  0  0  0
    6.3182   -0.3869    0.0000 H   0  0  0  0  0  0  0  0  0  0  0  0
    5.1119   -0.5996    0.0000 H   0  0  0  0  0  0  0  0  0  0  0  0
    6.6840    1.9909    0.0000 C   0  0  0  0  0  0  0  0  0  0  0  0
    5.8245    3.3404    0.0000 H   0  0  0  0  0  0  0  0  0  0  0  0
    7.0303    3.5530    0.0000 H   0  0  0  0  0  0  0  0  0  0  0  0
    8.1875    1.4437    0.0000 C   0  0  0  0  0  0  0  0  0  0  0  0
    9.0473    0.0942    0.0000 H   0  0  0  0  0  0  0  0  0  0  0  0
    7.8411   -0.1184    0.0000 H   0  0  0  0  0  0  0  0  0  0  0  0
    9.4132    2.4722    0.0000 C   0  0  0  0  0  0  0  0  0  0  0  0
    8.5537    3.8215    0.0000 H   0  0  0  0  0  0  0  0  0  0  0  0
    9.7595    4.0342    0.0000 H   0  0  0  0  0  0  0  0  0  0  0  0
   10.9166    1.9250    0.0000 C   0  0  0  0  0  0  0  0  0  0  0  0
   11.7765    0.5755    0.0000 H   0  0  0  0  0  0  0  0  0  0  0  0
   10.5703    0.3629    0.0000 H   0  0  0  0  0  0  0  0  0  0  0  0
   12.1423    2.9534    0.0000 C   0  0  0  0  0  0  0  0  0  0  0  0
   11.2829    4.3028    0.0000 H   0  0  0  0  0  0  0  0  0  0  0  0
   12.4887    4.5155    0.0000 H   0  0  0  0  0  0  0  0  0  0  0  0
   13.6458    2.4061    0.0000 C   0  0  0  0  0  0  0  0  0  0  0  0
   14.5057    1.0568    0.0000 H   0  0  0  0  0  0  0  0  0  0  0  0
   13.2995    0.8440    0.0000 H   0  0  0  0  0  0  0  0  0  0  0  0
   14.8715    3.4346    0.0000 C   0  0  0  0  0  0  0  0  0  0  0  0
   14.0121    4.7840    0.0000 H   0  0  0  0  0  0  0  0  0  0  0  0
   15.2179    4.9966    0.0000 H   0  0  0  0  0  0  0  0  0  0  0  0
   16.3750    2.8874    0.0000 C   0  0  0  0  0  0  0  0  0  0  0  0
   17.2349    1.5379    0.0000 H   0  0  0  0  0  0  0  0  0  0  0  0
   16.0287    1.3253    0.0000 H   0  0  0  0  0  0  0  0  0  0  0  0
   17.6007    3.9158    0.0000 C   0  0  0  0  0  0  0  0  0  0  0  0
   16.7413    5.2653    0.0000 H   0  0  0  0  0  0  0  0  0  0  0  0
   17.9471    5.4779    0.0000 H   0  0  0  0  0  0  0  0  0  0  0  0
   19.1042    3.3686    0.0000 C   0  0  0  0  0  0  0  0  0  0  0  0
   19.9641    2.0192    0.0000 H   0  0  0  0  0  0  0  0  0  0  0  0
   18.7579    1.8066    0.0000 H   0  0  0  0  0  0  0  0  0  0  0  0
   20.3299    4.3971    0.0000 C   0  0  0  0  0  0  0  0  0  0  0  0
   19.4700    5.7466    0.0000 H   0  0  0  0  0  0  0  0  0  0  0  0
   20.6763    5.9592    0.0000 H   0  0  0  0  0  0  0  0  0  0  0  0
   21.8334    3.8499    0.0000 C   0  0  0  0  0  0  0  0  0  0  0  0
   22.6933    2.5004    0.0000 H   0  0  0  0  0  0  0  0  0  0  0  0
   21.4871    2.2877    0.0000 H   0  0  0  0  0  0  0  0  0  0  0  0
   23.0591    4.8782    0.0000 C   0  0  0  0  0  0  0  0  0  0  0  0
   24.2848    5.9068    0.0000 H   0  0  0  0  0  0  0  0  0  0  0  0
   24.5626    4.3310    0.0000 H   0  0  0  0  0  0  0  0  0  0  0  0
   22.7813    6.4540    0.0000 H   0  0  0  0  0  0  0  0  0  0  0  0
  1  2  1  0  0  0  0
  1  3  1  0  0  0  0
  3  4  1  0  0  0  0
  3  5  1  0  0  0  0
  3  6  1  0  0  0  0
  6  7  1  0  0  0  0
  6  8  1  0  0  0  0
  6  9  1  0  0  0  0
  9 10  1  0  0  0  0
  9 11  1  0  0  0  0
  9 12  1  0  0  0  0
 12 13  1  0  0  0  0
 12 14  1  0  0  0  0
 12 15  1  0  0  0  0
 15  1  1  0  0  0  0
 15 16  1  0  0  0  0
 15 17  1  0  0  0  0
  1 18  1  0  0  0  0
 18 19  1  0  0  0  0
 18 20  1  0  0  0  0
 18 21  1  0  0  0  0
 21 22  1  0  0  0  0
 21 23  1  0  0  0  0
 21 24  1  0  0  0  0
 24 25  1  0  0  0  0
 24 26  1  0  0  0  0
 24 27  1  0  0  0  0
 27 28  1  0  0  0  0
 27 29  1  0  0  0  0
 27 30  1  0  0  0  0
 30 31  1  0  0  0  0
 30 32  1  0  0  0  0
 30 33  1  0  0  0  0
 33 34  1  0  0  0  0
 33 35  1  0  0  0  0
 33 36  1  0  0  0  0
 36 37  1  0  0  0  0
 36 38  1  0  0  0  0
 36 39  1  0  0  0  0
 39 40  1  0  0  0  0
 39 41  1  0  0  0  0
 39 42  1  0  0  0  0
 42 43  1  0  0  0  0
 42 44  1  0  0  0  0
 42 45  1  0  0  0  0
 45 46  1  0  0  0  0
 45 47  1  0  0  0  0
 45 48  1  0  0  0  0
 48 49  1  0  0  0  0
 48 50  1  0  0  0  0
 48 51  1  0  0  0  0
 51 52  1  0  0  0  0
 51 53  1  0  0  0  0
 51 54  1  0  0  0  0
 54 55  1  0  0  0  0
 54 56  1  0  0  0  0
 54 57  1  0  0  0  0
 57 58  1  0  0  0  0
 57 59  1  0  0  0  0
 57 60  1  0  0  0  0
 60 61  1  0  0  0  0
 60 62  1  0  0  0  0
 60 63  1  0  0  0  0
 63 64  1  0  0  0  0
 63 65  1  0  0  0  0
 63 66  1  0  0  0  0
 66 67  1  0  0  0  0
 66 68  1  0  0  0  0
 66 69  1  0  0  0  0
M  END
> <ChemID>
105511

> <source_casrn>
19781-73-8

> <CAS>
19781-73-8

> <SMILES>
CCCCCCCCCCCCCCCCCC1CCCCC1

> <NAME>
HEPTADECYLCYCLOHEXANE

> <preferred_name>
Heptadecylcyclohexane

> <iupac>
HEPTADECYLCYCLOHEXANE

> <MPID>
24355

> <dsstox_substance_id>
DTXSID40173489

> <Canonical_QSARr>
CCCCCCCCCCCCCCCCCC1CCCCC1

> <InChI_Code_QSARr>
InChI=1S/C23H46/c1-2-3-4-5-6-7-8-9-10-11-12-13-14-15-17-20-23-21-18-16-19-22-23/h23H,2-22H2,1H3

> <InChI Key_QSARr>
VLHZQNGNJQYAIZ-UHFFFAOYSA-N

> <Salt_Solvent>
?

> <BP>
397.0

$$$$
105515
  -INDIGO-08031720192D

 23 22  0  0  0  0  0  0  0  0999 V2000
    1.3856   -0.7999    0.0000 C   0  0  0  0  0  0  0  0  0  0  0  0
    2.8892   -0.2528    0.0000 O   0  0  0  0  0  0  0  0  0  0  0  0
    4.1148   -1.2812    0.0000 H   0  0  0  0  0  0  0  0  0  0  0  0
    1.6635   -2.3757    0.0000 O   0  0  0  0  0  0  0  0  0  0  0  0
    0.0000    0.0000    0.0000 C   0  0  0  0  0  0  0  0  0  0  0  0
    0.8000    1.3857    0.0000 C   0  0  0  0  0  0  0  0  0  0  0  0
    2.2783    0.7733    0.0000 H   0  0  0  0  0  0  0  0  0  0  0  0
    2.2783    1.9980    0.0000 H   0  0  0  0  0  0  0  0  0  0  0  0
    0.0000    2.7713    0.0000 C   0  0  0  0  0  0  0  0  0  0  0  0
    0.8000    4.1569    0.0000 H   0  0  0  0  0  0  0  0  0  0  0  0
   -0.8000    4.1569    0.0000 H   0  0  0  0  0  0  0  0  0  0  0  0
    1.6000    2.7713    0.0000 H   0  0  0  0  0  0  0  0  0  0  0  0
   -0.8000   -1.3856    0.0000 C   0  0  0  0  0  0  0  0  0  0  0  0
    0.4693   -2.3596    0.0000 H   0  0  0  0  0  0  0  0  0  0  0  0
   -0.5911   -2.9720    0.0000 H   0  0  0  0  0  0  0  0  0  0  0  0
   -2.3999   -1.3856    0.0000 C   0  0  0  0  0  0  0  0  0  0  0  0
   -3.2000   -2.7713    0.0000 H   0  0  0  0  0  0  0  0  0  0  0  0
   -4.0000   -1.3856    0.0000 H   0  0  0  0  0  0  0  0  0  0  0  0
   -1.6000   -2.7713    0.0000 H   0  0  0  0  0  0  0  0  0  0  0  0
   -1.3857    0.8000    0.0000 C   0  0  0  0  0  0  0  0  0  0  0  0
   -2.7713    1.5999    0.0000 H   0  0  0  0  0  0  0  0  0  0  0  0
   -2.7713    0.0000    0.0000 H   0  0  0  0  0  0  0  0  0  0  0  0
   -1.3857    2.4000    0.0000 H   0  0  0  0  0  0  0  0  0  0  0  0
  1  2  1  0  0  0  0
  2  3  1  0  0  0  0
  1  4  2  0  0  0  0
  1  5  1  0  0  0  0
  5  6  1  0  0  0  0
  6  7  1  0  0  0  0
  6  8  1  0  0  0  0
  6  9  1  0  0  0  0
  9 10  1  0  0  0  0
  9 11  1  0  0  0  0
  9 12  1  0  0  0  0
  5 13  1  0  0  0  0
 13 14  1  0  0  0  0
 13 15  1  0  0  0  0
 13 16  1  0  0  0  0
 16 17  1  0  0  0  0
 16 18  1  0  0  0  0
 16 19  1  0  0  0  0
  5 20  1  0  0  0  0
 20 21  1  0  0  0  0
 20 22  1  0  0  0  0
 20 23  1  0  0  0  0
M  END
> <ChemID>
105515

> <source_casrn>
19889-37-3

> <CAS>
19889-37-3

> <SMILES>
CC(CC)(CC)C(O)=O

> <NAME>
Butanoic acid, 2-ethyl-2-methyl-

> <preferred_name>
2-Ethyl-2-methylbutyric acid

> <iupac>
2-ethyl-2-methylbutanoic acid

> <MPID>
24359

> <dsstox_substance_id>
DTXSID7051840

> <Canonical_QSARr>
CC(CC)(CC)C(O)=O

> <InChI_Code_QSARr>
InChI=1S/C7H14O2/c1-4-7(3,5-2)6(8)9/h4-5H2,1-3H3,(H,8,9)

> <InChI Key_QSARr>
LHJPKLWGGMAUAN-UHFFFAOYSA-N

> <Salt_Solvent>
?

> <BP>
207.0

$$$$
105519
  -INDIGO-08031720192D

 27 26  0  0  0  0  0  0  0  0999 V2000
    8.3139    0.0000    0.0000 C   0  0  0  0  0  0  0  0  0  0  0  0
    9.6995   -0.8000    0.0000 H   0  0  0  0  0  0  0  0  0  0  0  0
    9.6995    0.8000    0.0000 H   0  0  0  0  0  0  0  0  0  0  0  0
    8.3139   -1.6000    0.0000 H   0  0  0  0  0  0  0  0  0  0  0  0
    6.9282    0.8000    0.0000 C   0  0  0  0  0  0  0  0  0  0  0  0
    6.3159    2.2782    0.0000 H   0  0  0  0  0  0  0  0  0  0  0  0
    7.5405    2.2782    0.0000 H   0  0  0  0  0  0  0  0  0  0  0  0
    5.5427    0.0000    0.0000 C   0  0  0  0  0  0  0  0  0  0  0  0
    5.5427   -1.6000    0.0000 H   0  0  0  0  0  0  0  0  0  0  0  0
    4.1569    0.8000    0.0000 C   0  0  0  0  0  0  0  0  0  0  0  0
    4.1569    2.4000    0.0000 H   0  0  0  0  0  0  0  0  0  0  0  0
    2.7712    0.0000    0.0000 C   0  0  0  0  0  0  0  0  0  0  0  0
    3.3835   -1.4782    0.0000 H   0  0  0  0  0  0  0  0  0  0  0  0
    2.1591   -1.4782    0.0000 H   0  0  0  0  0  0  0  0  0  0  0  0
    1.3856    0.8000    0.0000 C   0  0  0  0  0  0  0  0  0  0  0  0
    0.7733    2.2782    0.0000 H   0  0  0  0  0  0  0  0  0  0  0  0
    1.9980    2.2782    0.0000 H   0  0  0  0  0  0  0  0  0  0  0  0
   -0.0001    0.0000    0.0000 C   0  0  0  0  0  0  0  0  0  0  0  0
    0.6122   -1.4782    0.0000 H   0  0  0  0  0  0  0  0  0  0  0  0
   -0.6122   -1.4782    0.0000 H   0  0  0  0  0  0  0  0  0  0  0  0
   -1.3856    0.8000    0.0000 C   0  0  0  0  0  0  0  0  0  0  0  0
   -1.9980    2.2782    0.0000 H   0  0  0  0  0  0  0  0  0  0  0  0
   -0.7733    2.2782    0.0000 H   0  0  0  0  0  0  0  0  0  0  0  0
   -2.7714    0.0000    0.0000 C   0  0  0  0  0  0  0  0  0  0  0  0
   -4.1569   -0.8000    0.0000 H   0  0  0  0  0  0  0  0  0  0  0  0
   -4.1569    0.8000    0.0000 H   0  0  0  0  0  0  0  0  0  0  0  0
   -2.7714   -1.6000    0.0000 H   0  0  0  0  0  0  0  0  0  0  0  0
  1  2  1  0  0  0  0
  1  3  1  0  0  0  0
  1  4  1  0  0  0  0
  1  5  1  0  0  0  0
  5  6  1  0  0  0  0
  5  7  1  0  0  0  0
  5  8  1  0  0  0  0
  8  9  1  0  0  0  0
  8 10  2  0  0  0  0
 10 11  1  0  0  0  0
 10 12  1  0  0  0  0
 12 13  1  0  0  0  0
 12 14  1  0  0  0  0
 12 15  1  0  0  0  0
 15 16  1  0  0  0  0
 15 17  1  0  0  0  0
 15 18  1  0  0  0  0
 18 19  1  0  0  0  0
 18 20  1  0  0  0  0
 18 21  1  0  0  0  0
 21 22  1  0  0  0  0
 21 23  1  0  0  0  0
 21 24  1  0  0  0  0
 24 25  1  0  0  0  0
 24 26  1  0  0  0  0
 24 27  1  0  0  0  0
M  END
> <ChemID>
105519

> <source_casrn>
20063-92-7

> <CAS>
20063-92-7

> <SMILES>
CC/C=C/CCCCC

> <NAME>
TRANS-3-NONENE

> <preferred_name>


> <iupac>


> <MPID>
24363

> <dsstox_substance_id>
DTXSID70879624

> <Canonical_QSARr>
CCC=CCCCCC

> <InChI_Code_QSARr>
InChI=1S/C9H18/c1-3-5-7-9-8-6-4-2/h5,7H,3-4,6,8-9H2,1-2H3/b7-5+

> <InChI Key_QSARr>
YCBSHDKATAPNIA-FNORWQNLSA-N

> <Salt_Solvent>
?

> <BP>
147.5

$$$$
105523
  -INDIGO-08031720192D

 20 21  0  0  0  0  0  0  0  0999 V2000
   -0.0000   -0.0000    0.0000 C   0  0  0  0  0  0  0  0  0  0  0  0
    1.5217    0.4944    0.0000 C   0  0  0  0  0  0  0  0  0  0  0  0
    0.8710    1.9561    0.0000 H   0  0  0  0  0  0  0  0  0  0  0  0
    2.9073    1.2944    0.0000 H   0  0  0  0  0  0  0  0  0  0  0  0
    2.4622   -0.8000    0.0000 C   0  0  0  0  0  0  0  0  0  0  0  0
    4.0621   -0.8000    0.0000 H   0  0  0  0  0  0  0  0  0  0  0  0
    1.5217   -2.0944    0.0000 C   0  0  0  0  0  0  0  0  0  0  0  0
    2.0162   -3.6161    0.0000 H   0  0  0  0  0  0  0  0  0  0  0  0
   -0.0000   -1.6000    0.0000 C   0  0  0  0  0  0  0  0  0  0  0  0
   -1.3856   -2.4000    0.0000 C   0  0  0  0  0  0  0  0  0  0  0  0
   -1.3856   -4.0000    0.0000 H   0  0  0  0  0  0  0  0  0  0  0  0
   -2.7713   -1.6000    0.0000 C   0  0  0  0  0  0  0  0  0  0  0  0
   -4.1569   -2.4000    0.0000 H   0  0  0  0  0  0  0  0  0  0  0  0
   -2.7713   -0.0000    0.0000 C   0  0  0  0  0  0  0  0  0  0  0  0
   -4.1569    0.8000    0.0000 C   0  0  0  0  0  0  0  0  0  0  0  0
   -5.5426    1.6000    0.0000 H   0  0  0  0  0  0  0  0  0  0  0  0
   -5.5426   -0.0000    0.0000 H   0  0  0  0  0  0  0  0  0  0  0  0
   -4.1569    2.4000    0.0000 H   0  0  0  0  0  0  0  0  0  0  0  0
   -1.3856    0.8000    0.0000 C   0  0  0  0  0  0  0  0  0  0  0  0
   -1.3856    2.4000    0.0000 H   0  0  0  0  0  0  0  0  0  0  0  0
  1  2  1  0  0  0  0
  2  3  1  0  0  0  0
  2  4  1  0  0  0  0
  2  5  1  0  0  0  0
  5  6  1  0  0  0  0
  5  7  2  0  0  0  0
  7  8  1  0  0  0  0
  7  9  1  0  0  0  0
  9  1  1  0  0  0  0
  9 10  2  0  0  0  0
 10 11  1  0  0  0  0
 10 12  1  0  0  0  0
 12 13  1  0  0  0  0
 12 14  2  0  0  0  0
 14 15  1  0  0  0  0
 15 16  1  0  0  0  0
 15 17  1  0  0  0  0
 15 18  1  0  0  0  0
 14 19  1  0  0  0  0
 19  1  2  0  0  0  0
 19 20  1  0  0  0  0
M  END
> <ChemID>
105523

> <source_casrn>
20232-11-5

> <CAS>
20232-11-5

> <SMILES>
Cc1ccc2C=CCc2c1

> <NAME>
6-Methyl-1H-indene

> <preferred_name>
6-Methyl-1H-indene

> <iupac>
6-Methyl-1H-indene

> <MPID>
24367

> <dsstox_substance_id>
DTXSID50174083

> <Canonical_QSARr>
Cc1ccc2C=CCc2c1

> <InChI_Code_QSARr>
InChI=1S/C10H10/c1-8-5-6-9-3-2-4-10(9)7-8/h2-3,5-7H,4H2,1H3

> <InChI Key_QSARr>
RIGBUHPGSPCSLT-UHFFFAOYSA-N

> <Salt_Solvent>
?

> <BP>
207.0

$$$$
105528
  -INDIGO-08031720192D

 32 31  0  0  0  0  0  0  0  0999 V2000
    3.3813    2.1229    0.0000 C   0  0  0  0  0  0  0  0  0  0  0  0
    3.6592    3.6986    0.0000 H   0  0  0  0  0  0  0  0  0  0  0  0
    4.8849    2.6702    0.0000 H   0  0  0  0  0  0  0  0  0  0  0  0
    2.1557    3.1513    0.0000 H   0  0  0  0  0  0  0  0  0  0  0  0
    3.1035    0.5473    0.0000 C   0  0  0  0  0  0  0  0  0  0  0  0
    4.6294    0.0661    0.0000 H   0  0  0  0  0  0  0  0  0  0  0  0
    4.0775   -0.7221    0.0000 H   0  0  0  0  0  0  0  0  0  0  0  0
    1.6000   -0.0000    0.0000 C   0  0  0  0  0  0  0  0  0  0  0  0
    1.3222    1.5757    0.0000 H   0  0  0  0  0  0  0  0  0  0  0  0
    0.0000   -0.0000    0.0000 C   0  0  0  0  0  0  0  0  0  0  0  0
   -1.6001   -0.0000    0.0000 C   0  0  0  0  0  0  0  0  0  0  0  0
   -1.8089   -1.5863    0.0000 H   0  0  0  0  0  0  0  0  0  0  0  0
   -2.8694   -0.9740    0.0000 H   0  0  0  0  0  0  0  0  0  0  0  0
   -2.9857    0.8000    0.0000 C   0  0  0  0  0  0  0  0  0  0  0  0
   -3.5979    2.2782    0.0000 H   0  0  0  0  0  0  0  0  0  0  0  0
   -2.3733    2.2782    0.0000 H   0  0  0  0  0  0  0  0  0  0  0  0
   -4.3713   -0.0000    0.0000 C   0  0  0  0  0  0  0  0  0  0  0  0
   -5.7569   -0.8000    0.0000 H   0  0  0  0  0  0  0  0  0  0  0  0
   -5.7569    0.8000    0.0000 H   0  0  0  0  0  0  0  0  0  0  0  0
   -4.3713   -1.6000    0.0000 H   0  0  0  0  0  0  0  0  0  0  0  0
    0.0000    1.6000    0.0000 C   0  0  0  0  0  0  0  0  0  0  0  0
    0.0000    3.2000    0.0000 H   0  0  0  0  0  0  0  0  0  0  0  0
    1.2257    2.6285    0.0000 H   0  0  0  0  0  0  0  0  0  0  0  0
   -1.3856    2.3999    0.0000 H   0  0  0  0  0  0  0  0  0  0  0  0
    0.0000   -1.6000    0.0000 C   0  0  0  0  0  0  0  0  0  0  0  0
    0.0000   -3.2000    0.0000 H   0  0  0  0  0  0  0  0  0  0  0  0
   -1.2256   -2.6285    0.0000 H   0  0  0  0  0  0  0  0  0  0  0  0
    1.3857   -2.4000    0.0000 H   0  0  0  0  0  0  0  0  0  0  0  0
    1.8778   -1.5757    0.0000 C   0  0  0  0  0  0  0  0  0  0  0  0
    3.3813   -2.1229    0.0000 H   0  0  0  0  0  0  0  0  0  0  0  0
    2.1557   -3.1514    0.0000 H   0  0  0  0  0  0  0  0  0  0  0  0
    3.1035   -0.5472    0.0000 H   0  0  0  0  0  0  0  0  0  0  0  0
  1  2  1  0  0  0  0
  1  3  1  0  0  0  0
  1  4  1  0  0  0  0
  1  5  1  0  0  0  0
  5  6  1  0  0  0  0
  5  7  1  0  0  0  0
  5  8  1  0  0  0  0
  8  9  1  0  0  0  0
  8 10  1  0  0  0  0
 10 11  1  0  0  0  0
 11 12  1  0  0  0  0
 11 13  1  0  0  0  0
 11 14  1  0  0  0  0
 14 15  1  0  0  0  0
 14 16  1  0  0  0  0
 14 17  1  0  0  0  0
 17 18  1  0  0  0  0
 17 19  1  0  0  0  0
 17 20  1  0  0  0  0
 10 21  1  0  0  0  0
 21 22  1  0  0  0  0
 21 23  1  0  0  0  0
 21 24  1  0  0  0  0
 10 25  1  0  0  0  0
 25 26  1  0  0  0  0
 25 27  1  0  0  0  0
 25 28  1  0  0  0  0
  8 29  1  0  0  0  0
 29 30  1  0  0  0  0
 29 31  1  0  0  0  0
 29 32  1  0  0  0  0
M  END
> <ChemID>
105528

> <source_casrn>
20278-88-0

> <CAS>
NOCAS_871311

> <SMILES>
CCC(C)C(C)(C)CCC

> <NAME>
3,4,4-TRIMETHYLHEPTANE

> <preferred_name>


> <iupac>


> <MPID>
24371

> <dsstox_substance_id>
DTXSID80871311

> <Canonical_QSARr>
CCC(C)C(C)(C)CCC

> <InChI_Code_QSARr>
InChI=1S/C10H22/c1-6-8-10(4,5)9(3)7-2/h9H,6-8H2,1-5H3

> <InChI Key_QSARr>
BLNBSBLKPFFJKQ-UHFFFAOYSA-N

> <Salt_Solvent>
?

> <BP>
161.1

$$$$
105533
  -INDIGO-08031720192D

 36 35  0  0  0  0  0  0  0  0999 V2000
    2.8592    5.0842    0.0000 C   0  0  0  0  0  0  0  0  0  0  0  0
    3.1370    6.6600    0.0000 H   0  0  0  0  0  0  0  0  0  0  0  0
    4.3626    5.6315    0.0000 H   0  0  0  0  0  0  0  0  0  0  0  0
    1.6334    6.1127    0.0000 H   0  0  0  0  0  0  0  0  0  0  0  0
    2.5814    3.5086    0.0000 C   0  0  0  0  0  0  0  0  0  0  0  0
    1.0056    3.7864    0.0000 H   0  0  0  0  0  0  0  0  0  0  0  0
    4.1571    3.2307    0.0000 O   0  0  0  0  0  0  0  0  0  0  0  0
    5.1855    4.4564    0.0000 H   0  0  0  0  0  0  0  0  0  0  0  0
    2.3034    1.9328    0.0000 C   0  0  0  0  0  0  0  0  0  0  0  0
    3.8295    1.4518    0.0000 H   0  0  0  0  0  0  0  0  0  0  0  0
    3.0423    0.5137    0.0000 H   0  0  0  0  0  0  0  0  0  0  0  0
    0.8001    1.3856    0.0000 O   0  0  0  0  0  0  0  0  0  0  0  0
   -0.0001    0.0000    0.0000 C   0  0  0  0  0  0  0  0  0  0  0  0
   -0.8001   -1.3856    0.0000 H   0  0  0  0  0  0  0  0  0  0  0  0
    1.2257   -1.0284    0.0000 C   0  0  0  0  0  0  0  0  0  0  0  0
    2.4513   -2.0569    0.0000 H   0  0  0  0  0  0  0  0  0  0  0  0
    0.9479   -2.6042    0.0000 H   0  0  0  0  0  0  0  0  0  0  0  0
    2.7291   -0.4812    0.0000 H   0  0  0  0  0  0  0  0  0  0  0  0
   -1.3856    0.8000    0.0000 C   0  0  0  0  0  0  0  0  0  0  0  0
   -0.7733    2.2782    0.0000 H   0  0  0  0  0  0  0  0  0  0  0  0
   -1.9980    2.2782    0.0000 H   0  0  0  0  0  0  0  0  0  0  0  0
   -2.7713    0.0000    0.0000 O   0  0  0  0  0  0  0  0  0  0  0  0
   -4.1568    0.8000    0.0000 C   0  0  0  0  0  0  0  0  0  0  0  0
   -3.3569    2.1856    0.0000 H   0  0  0  0  0  0  0  0  0  0  0  0
   -4.9570   -0.5857    0.0000 C   0  0  0  0  0  0  0  0  0  0  0  0
   -5.7570   -1.9713    0.0000 H   0  0  0  0  0  0  0  0  0  0  0  0
   -4.1568   -1.9713    0.0000 H   0  0  0  0  0  0  0  0  0  0  0  0
   -6.5569   -0.5857    0.0000 H   0  0  0  0  0  0  0  0  0  0  0  0
   -5.5425    1.6001    0.0000 C   0  0  0  0  0  0  0  0  0  0  0  0
   -4.9302    3.0781    0.0000 H   0  0  0  0  0  0  0  0  0  0  0  0
   -6.1549    3.0781    0.0000 H   0  0  0  0  0  0  0  0  0  0  0  0
   -6.9283    0.8000    0.0000 O   0  0  0  0  0  0  0  0  0  0  0  0
   -8.3138    1.6001    0.0000 C   0  0  0  0  0  0  0  0  0  0  0  0
   -9.6995    2.4000    0.0000 H   0  0  0  0  0  0  0  0  0  0  0  0
   -9.6995    0.8000    0.0000 H   0  0  0  0  0  0  0  0  0  0  0  0
   -8.3138    3.2000    0.0000 H   0  0  0  0  0  0  0  0  0  0  0  0
  1  2  1  0  0  0  0
  1  3  1  0  0  0  0
  1  4  1  0  0  0  0
  1  5  1  0  0  0  0
  5  6  1  0  0  0  0
  5  7  1  0  0  0  0
  7  8  1  0  0  0  0
  5  9  1  0  0  0  0
  9 10  1  0  0  0  0
  9 11  1  0  0  0  0
  9 12  1  0  0  0  0
 12 13  1  0  0  0  0
 13 14  1  0  0  0  0
 13 15  1  0  0  0  0
 15 16  1  0  0  0  0
 15 17  1  0  0  0  0
 15 18  1  0  0  0  0
 13 19  1  0  0  0  0
 19 20  1  0  0  0  0
 19 21  1  0  0  0  0
 19 22  1  0  0  0  0
 22 23  1  0  0  0  0
 23 24  1  0  0  0  0
 23 25  1  0  0  0  0
 25 26  1  0  0  0  0
 25 27  1  0  0  0  0
 25 28  1  0  0  0  0
 23 29  1  0  0  0  0
 29 30  1  0  0  0  0
 29 31  1  0  0  0  0
 29 32  1  0  0  0  0
 32 33  1  0  0  0  0
 33 34  1  0  0  0  0
 33 35  1  0  0  0  0
 33 36  1  0  0  0  0
M  END
> <ChemID>
105533

> <source_casrn>
20324-33-8

> <CAS>
20324-33-8

> <SMILES>
COCC(C)OCC(C)OCC(C)O

> <NAME>
TRIPROPYLENE GLYCOL METHYL ETHER

> <preferred_name>
1-[2-(2-Methoxy-1-methylethoxy)-1-methylethoxy]-2-propanol

> <iupac>
1-({1-[(1-methoxypropan-2-yl)oxy]propan-2-yl}oxy)propan-2-ol

> <MPID>
24375

> <dsstox_substance_id>
DTXSID6021616

> <Canonical_QSARr>
COCC(C)OCC(C)OCC(C)O

> <InChI_Code_QSARr>
InChI=1S/C10H22O4/c1-8(11)5-13-10(3)7-14-9(2)6-12-4/h8-11H,5-7H2,1-4H3

> <InChI Key_QSARr>
HPFDGTFXAVIVTH-UHFFFAOYSA-N

> <Salt_Solvent>
?

> <BP>
250.0

$$$$
105537
  -INDIGO-08031720192D

 23 22  0  0  0  0  0  0  0  0999 V2000
   -2.7713    0.0000    0.0000 C   0  0  0  0  0  0  0  0  0  0  0  0
   -2.1589   -1.4782    0.0000 H   0  0  0  0  0  0  0  0  0  0  0  0
   -3.3836   -1.4782    0.0000 H   0  0  0  0  0  0  0  0  0  0  0  0
   -1.3856    0.8000    0.0000 C   0  0  0  0  0  0  0  0  0  0  0  0
   -1.9979    2.2782    0.0000 H   0  0  0  0  0  0  0  0  0  0  0  0
   -0.7734    2.2782    0.0000 H   0  0  0  0  0  0  0  0  0  0  0  0
   -0.0001    0.0000    0.0000 C   0  0  0  0  0  0  0  0  0  0  0  0
    0.6123   -1.4782    0.0000 H   0  0  0  0  0  0  0  0  0  0  0  0
   -0.6122   -1.4782    0.0000 H   0  0  0  0  0  0  0  0  0  0  0  0
    1.3856    0.8000    0.0000 C   0  0  0  0  0  0  0  0  0  0  0  0
    0.7733    2.2782    0.0000 H   0  0  0  0  0  0  0  0  0  0  0  0
    1.9980    2.2782    0.0000 H   0  0  0  0  0  0  0  0  0  0  0  0
    2.7713    0.0000    0.0000 C   0  0  0  0  0  0  0  0  0  0  0  0
    3.3835   -1.4782    0.0000 H   0  0  0  0  0  0  0  0  0  0  0  0
    2.1590   -1.4782    0.0000 H   0  0  0  0  0  0  0  0  0  0  0  0
    4.1569    0.8000    0.0000 C   0  0  0  0  0  0  0  0  0  0  0  0
    5.5426    1.6000    0.0000 H   0  0  0  0  0  0  0  0  0  0  0  0
    5.5426    0.0000    0.0000 H   0  0  0  0  0  0  0  0  0  0  0  0
    4.1569    2.4000    0.0000 H   0  0  0  0  0  0  0  0  0  0  0  0
   -4.1570    0.8000    0.0000 O   0  0  0  0  0  0  0  0  0  0  0  0
   -5.5425    0.0000    0.0000 N   0  0  0  0  0  0  0  0  0  0  0  0
   -6.9282    0.8000    0.0000 O   0  0  0  0  0  0  0  0  0  0  0  0
   -5.5425   -1.6000    0.0000 O   0  0  0  0  0  0  0  0  0  0  0  0
  1  2  1  0  0  0  0
  1  3  1  0  0  0  0
  1  4  1  0  0  0  0
  4  5  1  0  0  0  0
  4  6  1  0  0  0  0
  4  7  1  0  0  0  0
  7  8  1  0  0  0  0
  7  9  1  0  0  0  0
  7 10  1  0  0  0  0
 10 11  1  0  0  0  0
 10 12  1  0  0  0  0
 10 13  1  0  0  0  0
 13 14  1  0  0  0  0
 13 15  1  0  0  0  0
 13 16  1  0  0  0  0
 16 17  1  0  0  0  0
 16 18  1  0  0  0  0
 16 19  1  0  0  0  0
  1 20  1  0  0  0  0
 20 21  1  0  0  0  0
 21 22  2  0  0  0  0
 21 23  1  0  0  0  0
M  CHG  2  21   1  23  -1
M  END
> <ChemID>
105537

> <source_casrn>
20633-11-8

> <CAS>
20633-11-8

> <SMILES>
CCCCCCO[N+]([O-])=O

> <NAME>
1-HEXYL NITRATE

> <preferred_name>
Nitric acid, hexyl ester

> <iupac>
HEXYL NITRATE

> <MPID>
24379

> <dsstox_substance_id>
DTXSID8066636

> <Canonical_QSARr>
CCCCCCO[N+]([O-])=O

> <InChI_Code_QSARr>
InChI=1S/C6H13NO3/c1-2-3-4-5-6-10-7(8)9/h2-6H2,1H3

> <InChI Key_QSARr>
AGDYNDJUZRMYRG-UHFFFAOYSA-N

> <Salt_Solvent>
?

> <BP>
171.0

$$$$
105542
  -INDIGO-08031720192D

 23 23  0  0  0  0  0  0  0  0999 V2000
   -2.7713   -0.0001    0.0000 N   0  0  0  0  0  0  0  0  0  0  0  0
   -1.3856    0.8000    0.0000 C   0  0  0  0  0  0  0  0  0  0  0  0
   -1.3856    2.4000    0.0000 C   0  0  0  0  0  0  0  0  0  0  0  0
   -1.3856    4.0000    0.0000 H   0  0  0  0  0  0  0  0  0  0  0  0
   -2.7713    3.2001    0.0000 H   0  0  0  0  0  0  0  0  0  0  0  0
    0.0000    3.2001    0.0000 H   0  0  0  0  0  0  0  0  0  0  0  0
    0.0000    0.0001    0.0000 C   0  0  0  0  0  0  0  0  0  0  0  0
    1.3857    0.8000    0.0000 C   0  0  0  0  0  0  0  0  0  0  0  0
    2.7713    1.6001    0.0000 H   0  0  0  0  0  0  0  0  0  0  0  0
    1.3857    2.4000    0.0000 H   0  0  0  0  0  0  0  0  0  0  0  0
    2.7713    0.0001    0.0000 H   0  0  0  0  0  0  0  0  0  0  0  0
    0.0000   -1.5999    0.0000 C   0  0  0  0  0  0  0  0  0  0  0  0
    1.3856   -2.4000    0.0000 C   0  0  0  0  0  0  0  0  0  0  0  0
    2.7713   -3.1999    0.0000 H   0  0  0  0  0  0  0  0  0  0  0  0
    1.3857   -4.0000    0.0000 H   0  0  0  0  0  0  0  0  0  0  0  0
    2.7713   -1.6001    0.0000 H   0  0  0  0  0  0  0  0  0  0  0  0
   -1.3857   -2.4000    0.0000 C   0  0  0  0  0  0  0  0  0  0  0  0
   -1.3856   -4.0000    0.0000 H   0  0  0  0  0  0  0  0  0  0  0  0
   -2.7713   -1.6001    0.0000 C   0  0  0  0  0  0  0  0  0  0  0  0
   -4.1570   -2.4000    0.0000 C   0  0  0  0  0  0  0  0  0  0  0  0
   -5.5426   -3.1999    0.0000 H   0  0  0  0  0  0  0  0  0  0  0  0
   -5.5426   -1.5999    0.0000 H   0  0  0  0  0  0  0  0  0  0  0  0
   -4.1570   -4.0000    0.0000 H   0  0  0  0  0  0  0  0  0  0  0  0
  1  2  1  0  0  0  0
  2  3  1  0  0  0  0
  3  4  1  0  0  0  0
  3  5  1  0  0  0  0
  3  6  1  0  0  0  0
  2  7  2  0  0  0  0
  7  8  1  0  0  0  0
  8  9  1  0  0  0  0
  8 10  1  0  0  0  0
  8 11  1  0  0  0  0
  7 12  1  0  0  0  0
 12 13  1  0  0  0  0
 13 14  1  0  0  0  0
 13 15  1  0  0  0  0
 13 16  1  0  0  0  0
 12 17  2  0  0  0  0
 17 18  1  0  0  0  0
 17 19  1  0  0  0  0
 19  1  2  0  0  0  0
 19 20  1  0  0  0  0
 20 21  1  0  0  0  0
 20 22  1  0  0  0  0
 20 23  1  0  0  0  0
M  END
> <ChemID>
105542

> <source_casrn>
20820-82-0

> <CAS>
20820-82-0

> <SMILES>
Cc1c(C)cc(C)[n]c1C

> <NAME>
Pyridine, 2,3,4,6-tetramethyl-

> <preferred_name>
2,3,4,6-Tetramethylpyridine

> <iupac>
2,3,4,6-Tetramethylpyridine

> <MPID>
24383

> <dsstox_substance_id>
DTXSID00174937

> <Canonical_QSARr>
Cc1c(C)cc(C)[n]c1C

> <InChI_Code_QSARr>
InChI=1S/C9H13N/c1-6-5-7(2)10-9(4)8(6)3/h5H,1-4H3

> <InChI Key_QSARr>
QBSVEFGWBSANTE-UHFFFAOYSA-N

> <Salt_Solvent>
?

> <BP>
203.0

$$$$
105546
  -INDIGO-08031720192D

 18 17  0  0  0  0  0  0  0  0999 V2000
   -2.3631    1.8967    0.0000 Cl  0  0  0  0  0  0  0  0  0  0  0  0
   -1.5036    0.5472    0.0000 C   0  0  0  0  0  0  0  0  0  0  0  0
   -1.1572    2.1093    0.0000 H   0  0  0  0  0  0  0  0  0  0  0  0
    0.0000    0.0000    0.0000 C   0  0  0  0  0  0  0  0  0  0  0  0
   -0.8000   -1.3856    0.0000 O   0  0  0  0  0  0  0  0  0  0  0  0
    0.0000   -2.7713    0.0000 H   0  0  0  0  0  0  0  0  0  0  0  0
    1.3857   -0.8000    0.0000 C   0  0  0  0  0  0  0  0  0  0  0  0
    2.7713   -1.6000    0.0000 H   0  0  0  0  0  0  0  0  0  0  0  0
    1.3857   -2.4000    0.0000 H   0  0  0  0  0  0  0  0  0  0  0  0
    2.7713    0.0000    0.0000 H   0  0  0  0  0  0  0  0  0  0  0  0
    0.8000    1.3856    0.0000 C   0  0  0  0  0  0  0  0  0  0  0  0
    1.6001    2.7713    0.0000 H   0  0  0  0  0  0  0  0  0  0  0  0
    0.0000    2.7713    0.0000 H   0  0  0  0  0  0  0  0  0  0  0  0
    2.4000    1.3856    0.0000 H   0  0  0  0  0  0  0  0  0  0  0  0
   -2.7292   -0.4813    0.0000 C   0  0  0  0  0  0  0  0  0  0  0  0
   -3.9548   -1.5097    0.0000 H   0  0  0  0  0  0  0  0  0  0  0  0
   -4.2327    0.0660    0.0000 H   0  0  0  0  0  0  0  0  0  0  0  0
   -2.4513   -2.0569    0.0000 H   0  0  0  0  0  0  0  0  0  0  0  0
  1  2  1  0  0  0  0
  2  3  1  0  0  0  0
  2  4  1  0  0  0  0
  4  5  1  0  0  0  0
  5  6  1  0  0  0  0
  4  7  1  0  0  0  0
  7  8  1  0  0  0  0
  7  9  1  0  0  0  0
  7 10  1  0  0  0  0
  4 11  1  0  0  0  0
 11 12  1  0  0  0  0
 11 13  1  0  0  0  0
 11 14  1  0  0  0  0
  2 15  1  0  0  0  0
 15 16  1  0  0  0  0
 15 17  1  0  0  0  0
 15 18  1  0  0  0  0
M  END
> <ChemID>
105546

> <source_casrn>
21326-62-5

> <CAS>
NOCAS_871321

> <SMILES>
CC(Cl)C(C)(C)O

> <NAME>
2-Butanol, 3-chloro-2-methyl-

> <preferred_name>
PUBCHEM_21572590

> <iupac>
C5H11ClO

> <MPID>
24387

> <dsstox_substance_id>
DTXSID30871321

> <Canonical_QSARr>
CC(Cl)C(C)(C)O

> <InChI_Code_QSARr>
InChI=1S/C5H11ClO/c1-4(6)5(2,3)7/h4,7H,1-3H3

> <InChI Key_QSARr>
YYHQXKBKFKTDMP-UHFFFAOYSA-N

> <Salt_Solvent>
?

> <BP>
141.5

$$$$
105552
  -INDIGO-08031720192D

 18 19  0  0  0  0  0  0  0  0999 V2000
   -0.2706    2.5746    0.0000 O   0  0  0  0  0  0  0  0  0  0  0  0
    0.7999    1.3856    0.0000 C   0  0  0  0  0  0  0  0  0  0  0  0
    0.0000   -0.0000    0.0000 C   0  0  0  0  0  0  0  0  0  0  0  0
    0.7999   -1.3856    0.0000 C   0  0  0  0  0  0  0  0  0  0  0  0
    0.0000   -2.7713    0.0000 H   0  0  0  0  0  0  0  0  0  0  0  0
    2.4000   -1.3856    0.0000 C   0  0  0  0  0  0  0  0  0  0  0  0
    3.2001   -2.7713    0.0000 H   0  0  0  0  0  0  0  0  0  0  0  0
    3.2001   -0.0000    0.0000 C   0  0  0  0  0  0  0  0  0  0  0  0
    4.8000   -0.0000    0.0000 H   0  0  0  0  0  0  0  0  0  0  0  0
    2.4000    1.3856    0.0000 C   0  0  0  0  0  0  0  0  0  0  0  0
    3.2001    2.7713    0.0000 H   0  0  0  0  0  0  0  0  0  0  0  0
   -1.5650    0.3327    0.0000 C   0  0  0  0  0  0  0  0  0  0  0  0
   -2.7541   -0.7380    0.0000 C   0  0  0  0  0  0  0  0  0  0  0  0
   -3.9431   -1.8086    0.0000 H   0  0  0  0  0  0  0  0  0  0  0  0
   -4.2758   -0.2435    0.0000 H   0  0  0  0  0  0  0  0  0  0  0  0
   -2.4214   -2.3030    0.0000 H   0  0  0  0  0  0  0  0  0  0  0  0
   -1.7323    1.9238    0.0000 C   0  0  0  0  0  0  0  0  0  0  0  0
   -3.1179    2.7239    0.0000 H   0  0  0  0  0  0  0  0  0  0  0  0
  1  2  1  0  0  0  0
  2  3  1  0  0  0  0
  3  4  2  0  0  0  0
  4  5  1  0  0  0  0
  4  6  1  0  0  0  0
  6  7  1  0  0  0  0
  6  8  2  0  0  0  0
  8  9  1  0  0  0  0
  8 10  1  0  0  0  0
 10  2  2  0  0  0  0
 10 11  1  0  0  0  0
  3 12  1  0  0  0  0
 12 13  1  0  0  0  0
 13 14  1  0  0  0  0
 13 15  1  0  0  0  0
 13 16  1  0  0  0  0
 12 17  2  0  0  0  0
 17  1  1  0  0  0  0
 17 18  1  0  0  0  0
M  END
> <ChemID>
105552

> <source_casrn>
21535-97-7

> <CAS>
21535-97-7

> <SMILES>
Cc1coc2ccccc21

> <NAME>
3-Methyl-benzofuran

> <preferred_name>
3-Methylbenzofuran

> <iupac>
3-methyl-1-benzofuran

> <MPID>
24392

> <dsstox_substance_id>
DTXSID30175871

> <Canonical_QSARr>
Cc1coc2ccccc21

> <InChI_Code_QSARr>
InChI=1S/C9H8O/c1-7-6-10-9-5-3-2-4-8(7)9/h2-6H,1H3

> <InChI Key_QSARr>
ZRXHLJNBNWVNIM-UHFFFAOYSA-N

> <Salt_Solvent>
?

> <BP>
197.0

$$$$
105556
  -INDIGO-08031720192D

 11 10  0  0  0  0  0  0  0  0999 V2000
   -0.6123   -1.4782    0.0000 Cl  0  0  0  0  0  0  0  0  0  0  0  0
    0.0000    0.0000    0.0000 C   0  0  0  0  0  0  0  0  0  0  0  0
    0.6123   -1.4782    0.0000 H   0  0  0  0  0  0  0  0  0  0  0  0
   -1.3856    0.8000    0.0000 C   0  0  0  0  0  0  0  0  0  0  0  0
   -2.7713    1.6000    0.0000 Cl  0  0  0  0  0  0  0  0  0  0  0  0
   -2.7713    0.0000    0.0000 Cl  0  0  0  0  0  0  0  0  0  0  0  0
   -1.3856    2.4000    0.0000 Cl  0  0  0  0  0  0  0  0  0  0  0  0
    1.3856    0.8000    0.0000 C   0  0  0  0  0  0  0  0  0  0  0  0
    2.7713    1.6000    0.0000 H   0  0  0  0  0  0  0  0  0  0  0  0
    2.7713    0.0000    0.0000 H   0  0  0  0  0  0  0  0  0  0  0  0
    1.3856    2.4000    0.0000 Cl  0  0  0  0  0  0  0  0  0  0  0  0
  1  2  1  0  0  0  0
  2  3  1  0  0  0  0
  2  4  1  0  0  0  0
  4  5  1  0  0  0  0
  4  6  1  0  0  0  0
  4  7  1  0  0  0  0
  2  8  1  0  0  0  0
  8  9  1  0  0  0  0
  8 10  1  0  0  0  0
  8 11  1  0  0  0  0
M  END
> <ChemID>
105556

> <source_casrn>
21700-31-2

> <CAS>
NOCAS_871328

> <SMILES>
ClCC(Cl)C(Cl)(Cl)Cl

> <NAME>
1,1,1,2,3-pentachloropropane

> <preferred_name>
PUBCHEM_13454491

> <iupac>
C3H3Cl5

> <MPID>
24396

> <dsstox_substance_id>
DTXSID50871328

> <Canonical_QSARr>
ClCC(Cl)C(Cl)(Cl)Cl

> <InChI_Code_QSARr>
InChI=1S/C3H3Cl5/c4-1-2(5)3(6,7)8/h2H,1H2

> <InChI Key_QSARr>
ZXPCCXXSNUIVNK-UHFFFAOYSA-N

> <Salt_Solvent>
?

> <BP>
179.5

$$$$
105561
  -INDIGO-08031720192D

 28 27  0  0  0  0  0  0  0  0999 V2000
    5.5427    0.0000    0.0000 C   0  0  0  0  0  0  0  0  0  0  0  0
    6.9282   -0.8000    0.0000 H   0  0  0  0  0  0  0  0  0  0  0  0
    5.5427    1.6000    0.0000 H   0  0  0  0  0  0  0  0  0  0  0  0
    4.1569   -0.8000    0.0000 C   0  0  0  0  0  0  0  0  0  0  0  0
    4.1569   -2.4000    0.0000 H   0  0  0  0  0  0  0  0  0  0  0  0
    2.7714    0.0000    0.0000 C   0  0  0  0  0  0  0  0  0  0  0  0
    1.9713   -1.3857    0.0000 H   0  0  0  0  0  0  0  0  0  0  0  0
    1.3856    0.8000    0.0000 C   0  0  0  0  0  0  0  0  0  0  0  0
    1.9980    2.2782    0.0000 H   0  0  0  0  0  0  0  0  0  0  0  0
    0.7733    2.2782    0.0000 H   0  0  0  0  0  0  0  0  0  0  0  0
    0.0001    0.0000    0.0000 C   0  0  0  0  0  0  0  0  0  0  0  0
   -0.6122   -1.4782    0.0000 H   0  0  0  0  0  0  0  0  0  0  0  0
    0.6122   -1.4782    0.0000 H   0  0  0  0  0  0  0  0  0  0  0  0
   -1.3856    0.8000    0.0000 C   0  0  0  0  0  0  0  0  0  0  0  0
   -0.7733    2.2782    0.0000 H   0  0  0  0  0  0  0  0  0  0  0  0
   -1.9980    2.2782    0.0000 H   0  0  0  0  0  0  0  0  0  0  0  0
   -2.7712    0.0000    0.0000 C   0  0  0  0  0  0  0  0  0  0  0  0
   -3.3835   -1.4782    0.0000 H   0  0  0  0  0  0  0  0  0  0  0  0
   -2.1591   -1.4782    0.0000 H   0  0  0  0  0  0  0  0  0  0  0  0
   -4.1569    0.8000    0.0000 C   0  0  0  0  0  0  0  0  0  0  0  0
   -3.5446    2.2782    0.0000 H   0  0  0  0  0  0  0  0  0  0  0  0
   -4.7692    2.2782    0.0000 H   0  0  0  0  0  0  0  0  0  0  0  0
   -5.5425    0.0000    0.0000 C   0  0  0  0  0  0  0  0  0  0  0  0
   -6.9282   -0.8000    0.0000 H   0  0  0  0  0  0  0  0  0  0  0  0
   -6.9282    0.8000    0.0000 H   0  0  0  0  0  0  0  0  0  0  0  0
   -5.5425   -1.6000    0.0000 H   0  0  0  0  0  0  0  0  0  0  0  0
    3.7998    1.2257    0.0000 O   0  0  0  0  0  0  0  0  0  0  0  0
    3.2526    2.7292    0.0000 H   0  0  0  0  0  0  0  0  0  0  0  0
  1  2  1  0  0  0  0
  1  3  1  0  0  0  0
  1  4  2  0  0  0  0
  4  5  1  0  0  0  0
  4  6  1  0  0  0  0
  6  7  1  0  0  0  0
  6  8  1  0  0  0  0
  8  9  1  0  0  0  0
  8 10  1  0  0  0  0
  8 11  1  0  0  0  0
 11 12  1  0  0  0  0
 11 13  1  0  0  0  0
 11 14  1  0  0  0  0
 14 15  1  0  0  0  0
 14 16  1  0  0  0  0
 14 17  1  0  0  0  0
 17 18  1  0  0  0  0
 17 19  1  0  0  0  0
 17 20  1  0  0  0  0
 20 21  1  0  0  0  0
 20 22  1  0  0  0  0
 20 23  1  0  0  0  0
 23 24  1  0  0  0  0
 23 25  1  0  0  0  0
 23 26  1  0  0  0  0
  6 27  1  0  0  0  0
 27 28  1  0  0  0  0
M  END
> <ChemID>
105561

> <source_casrn>
21964-44-3

> <CAS>
NOCAS_865023

> <SMILES>
CCCCCCC(O)C=C

> <NAME>
1-Nonen-3-ol

> <preferred_name>


> <iupac>


> <MPID>
24400

> <dsstox_substance_id>
DTXSID30865023

> <Canonical_QSARr>
CCCCCCC(O)C=C

> <InChI_Code_QSARr>
InChI=1S/C9H18O/c1-3-5-6-7-8-9(10)4-2/h4,9-10H,2-3,5-8H2,1H3

> <InChI Key_QSARr>
DWUPJMHAPOQKGJ-UHFFFAOYSA-N

> <Salt_Solvent>
?

> <BP>
193.5

$$$$
105566
  -INDIGO-08031720192D

 13 12  0  0  0  0  0  0  0  0999 V2000
    2.7713   -1.6000    0.0000 Cl  0  0  0  0  0  0  0  0  0  0  0  0
    2.7713    0.0000    0.0000 C   0  0  0  0  0  0  0  0  0  0  0  0
    4.1569    0.8000    0.0000 O   0  0  0  0  0  0  0  0  0  0  0  0
    1.3856    0.8000    0.0000 C   0  0  0  0  0  0  0  0  0  0  0  0
    0.7733    2.2782    0.0000 H   0  0  0  0  0  0  0  0  0  0  0  0
    0.0000    0.0000    0.0000 C   0  0  0  0  0  0  0  0  0  0  0  0
    0.6123   -1.4782    0.0000 H   0  0  0  0  0  0  0  0  0  0  0  0
   -0.6123   -1.4782    0.0000 H   0  0  0  0  0  0  0  0  0  0  0  0
   -1.3856    0.8000    0.0000 C   0  0  0  0  0  0  0  0  0  0  0  0
   -2.7713    1.6000    0.0000 H   0  0  0  0  0  0  0  0  0  0  0  0
   -2.7713    0.0000    0.0000 H   0  0  0  0  0  0  0  0  0  0  0  0
   -1.3856    2.4000    0.0000 H   0  0  0  0  0  0  0  0  0  0  0  0
    1.9980    2.2782    0.0000 Br  0  0  0  0  0  0  0  0  0  0  0  0
  1  2  1  0  0  0  0
  2  3  2  0  0  0  0
  2  4  1  0  0  0  0
  4  5  1  0  0  0  0
  4  6  1  0  0  0  0
  6  7  1  0  0  0  0
  6  8  1  0  0  0  0
  6  9  1  0  0  0  0
  9 10  1  0  0  0  0
  9 11  1  0  0  0  0
  9 12  1  0  0  0  0
  4 13  1  0  0  0  0
M  END
> <ChemID>
105566

> <source_casrn>
22118-12-3

> <CAS>
NOCAS_871332

> <SMILES>
CCC(Br)C(=O)Cl

> <NAME>
2-Bromo-butyryl chloride

> <preferred_name>


> <iupac>


> <MPID>
24405

> <dsstox_substance_id>
DTXSID40871332

> <Canonical_QSARr>
CCC(Br)C(=O)Cl

> <InChI_Code_QSARr>
InChI=1S/C4H6BrClO/c1-2-3(5)4(6)7/h3H,2H2,1H3

> <InChI Key_QSARr>
DROZQELYZZXYSX-UHFFFAOYSA-N

> <Salt_Solvent>
?

> <BP>
151.0

$$$$
105570
  -INDIGO-08031720192D

 26 26  0  0  0  0  0  0  0  0999 V2000
    0.0000   -1.6000    0.0000 N   0  0  0  0  0  0  0  0  0  0  0  0
    1.2257   -2.6285    0.0000 H   0  0  0  0  0  0  0  0  0  0  0  0
   -1.3856   -2.4000    0.0000 H   0  0  0  0  0  0  0  0  0  0  0  0
    0.0000   -0.0000    0.0000 C   0  0  0  0  0  0  0  0  0  0  0  0
    0.0000    1.6000    0.0000 H   0  0  0  0  0  0  0  0  0  0  0  0
    1.6000   -0.0000    0.0000 C   0  0  0  0  0  0  0  0  0  0  0  0
    1.8089   -1.5863    0.0000 H   0  0  0  0  0  0  0  0  0  0  0  0
    2.8693   -0.9740    0.0000 H   0  0  0  0  0  0  0  0  0  0  0  0
    2.4000    1.3856    0.0000 C   0  0  0  0  0  0  0  0  0  0  0  0
    2.1911    2.9719    0.0000 H   0  0  0  0  0  0  0  0  0  0  0  0
    1.1307    2.3597    0.0000 H   0  0  0  0  0  0  0  0  0  0  0  0
    4.0000    1.3856    0.0000 C   0  0  0  0  0  0  0  0  0  0  0  0
    4.8000    2.7713    0.0000 C   0  0  0  0  0  0  0  0  0  0  0  0
    4.0000    4.1569    0.0000 H   0  0  0  0  0  0  0  0  0  0  0  0
    6.4000    2.7713    0.0000 C   0  0  0  0  0  0  0  0  0  0  0  0
    7.2000    4.1569    0.0000 H   0  0  0  0  0  0  0  0  0  0  0  0
    7.2000    1.3856    0.0000 C   0  0  0  0  0  0  0  0  0  0  0  0
    8.8000    1.3856    0.0000 H   0  0  0  0  0  0  0  0  0  0  0  0
    6.4000   -0.0000    0.0000 C   0  0  0  0  0  0  0  0  0  0  0  0
    7.2000   -1.3857    0.0000 H   0  0  0  0  0  0  0  0  0  0  0  0
    4.8000   -0.0000    0.0000 C   0  0  0  0  0  0  0  0  0  0  0  0
    4.0000   -1.3857    0.0000 H   0  0  0  0  0  0  0  0  0  0  0  0
   -1.6000   -0.0000    0.0000 C   0  0  0  0  0  0  0  0  0  0  0  0
   -3.2000   -0.0000    0.0000 H   0  0  0  0  0  0  0  0  0  0  0  0
   -2.4000   -1.3857    0.0000 H   0  0  0  0  0  0  0  0  0  0  0  0
   -2.4000    1.3856    0.0000 H   0  0  0  0  0  0  0  0  0  0  0  0
  1  2  1  0  0  0  0
  1  3  1  0  0  0  0
  1  4  1  0  0  0  0
  4  5  1  0  0  0  0
  4  6  1  0  0  0  0
  6  7  1  0  0  0  0
  6  8  1  0  0  0  0
  6  9  1  0  0  0  0
  9 10  1  0  0  0  0
  9 11  1  0  0  0  0
  9 12  1  0  0  0  0
 12 13  1  0  0  0  0
 13 14  1  0  0  0  0
 13 15  2  0  0  0  0
 15 16  1  0  0  0  0
 15 17  1  0  0  0  0
 17 18  1  0  0  0  0
 17 19  2  0  0  0  0
 19 20  1  0  0  0  0
 19 21  1  0  0  0  0
 21 12  2  0  0  0  0
 21 22  1  0  0  0  0
  4 23  1  0  0  0  0
 23 24  1  0  0  0  0
 23 25  1  0  0  0  0
 23 26  1  0  0  0  0
M  END
> <ChemID>
105570

> <source_casrn>
22374-89-6

> <CAS>
4187-57-9

> <SMILES>
C[C@H](N)CCc1ccccc1

> <NAME>
BENZENEPROPANAMINE, ?-METHYL-

> <preferred_name>
AG-F-48804

> <iupac>
C10H15N

> <MPID>
24409

> <dsstox_substance_id>
DTXSID30426390

> <Canonical_QSARr>
CC(N)CCc1ccccc1

> <InChI_Code_QSARr>
InChI=1S/C10H15N/c1-9(11)7-8-10-5-3-2-4-6-10/h2-6,9H,7-8,11H2,1H3

> <InChI Key_QSARr>
WECUIGDEWBNQJJ-UHFFFAOYSA-N

> <Salt_Solvent>
?

> <BP>
223.0

$$$$
105576
  -INDIGO-08031720192D

 24 24  0  0  0  0  0  0  0  0999 V2000
   -4.1569    0.8000    0.0000 O   0  0  0  0  0  0  0  0  0  0  0  0
   -2.7712   -0.0000    0.0000 C   0  0  0  0  0  0  0  0  0  0  0  0
   -1.3857    0.8000    0.0000 C   0  0  0  0  0  0  0  0  0  0  0  0
   -1.3857    2.4000    0.0000 H   0  0  0  0  0  0  0  0  0  0  0  0
   -0.0000   -0.0000    0.0000 C   0  0  0  0  0  0  0  0  0  0  0  0
    1.3856    0.8000    0.0000 C   0  0  0  0  0  0  0  0  0  0  0  0
    2.7713    1.6000    0.0000 H   0  0  0  0  0  0  0  0  0  0  0  0
    1.3856    2.4000    0.0000 H   0  0  0  0  0  0  0  0  0  0  0  0
    2.7713   -0.0000    0.0000 H   0  0  0  0  0  0  0  0  0  0  0  0
   -0.0000   -1.6000    0.0000 C   0  0  0  0  0  0  0  0  0  0  0  0
    1.3856   -2.4000    0.0000 C   0  0  0  0  0  0  0  0  0  0  0  0
    2.7713   -3.2000    0.0000 H   0  0  0  0  0  0  0  0  0  0  0  0
    1.3856   -4.0000    0.0000 H   0  0  0  0  0  0  0  0  0  0  0  0
    2.7713   -1.6000    0.0000 H   0  0  0  0  0  0  0  0  0  0  0  0
   -1.3857   -2.4000    0.0000 C   0  0  0  0  0  0  0  0  0  0  0  0
   -1.3857   -4.0000    0.0000 H   0  0  0  0  0  0  0  0  0  0  0  0
   -2.7712   -1.6000    0.0000 C   0  0  0  0  0  0  0  0  0  0  0  0
   -4.1569   -2.4000    0.0000 H   0  0  0  0  0  0  0  0  0  0  0  0
   -5.5425   -0.0000    0.0000 C   0  0  0  0  0  0  0  0  0  0  0  0
   -5.5425   -1.6000    0.0000 O   0  0  0  0  0  0  0  0  0  0  0  0
   -6.9282    0.8000    0.0000 C   0  0  0  0  0  0  0  0  0  0  0  0
   -8.3138    1.6000    0.0000 H   0  0  0  0  0  0  0  0  0  0  0  0
   -8.3138   -0.0000    0.0000 H   0  0  0  0  0  0  0  0  0  0  0  0
   -6.9282    2.4000    0.0000 H   0  0  0  0  0  0  0  0  0  0  0  0
  1  2  1  0  0  0  0
  2  3  1  0  0  0  0
  3  4  1  0  0  0  0
  3  5  2  0  0  0  0
  5  6  1  0  0  0  0
  6  7  1  0  0  0  0
  6  8  1  0  0  0  0
  6  9  1  0  0  0  0
  5 10  1  0  0  0  0
 10 11  1  0  0  0  0
 11 12  1  0  0  0  0
 11 13  1  0  0  0  0
 11 14  1  0  0  0  0
 10 15  2  0  0  0  0
 15 16  1  0  0  0  0
 15 17  1  0  0  0  0
 17  2  2  0  0  0  0
 17 18  1  0  0  0  0
  1 19  1  0  0  0  0
 19 20  2  0  0  0  0
 19 21  1  0  0  0  0
 21 22  1  0  0  0  0
 21 23  1  0  0  0  0
 21 24  1  0  0  0  0
M  END
> <ChemID>
105576

> <source_casrn>
22618-23-1

> <CAS>
22618-23-1

> <SMILES>
Cc1cc(ccc1C)OC(C)=O

> <NAME>
Acetic acid 3,4-dimethyl-phenyl ester

> <preferred_name>
3,4-Xylyl acetate

> <iupac>
(3,4-dimethylphenyl) acetate

> <MPID>
24414

> <dsstox_substance_id>
DTXSID10177136

> <Canonical_QSARr>
Cc1cc(ccc1C)OC(C)=O

> <InChI_Code_QSARr>
InChI=1S/C10H12O2/c1-7-4-5-10(6-8(7)2)12-9(3)11/h4-6H,1-3H3

> <InChI Key_QSARr>
ZFIOOTIKKICLOR-UHFFFAOYSA-N

> <Salt_Solvent>
?

> <BP>
235.0

$$$$
105580
  -INDIGO-08031720192D

 17 16  0  0  0  0  0  0  0  0999 V2000
   -2.4000    1.3856    0.0000 Cl  0  0  0  0  0  0  0  0  0  0  0  0
   -0.8000    1.3856    0.0000 C   0  0  0  0  0  0  0  0  0  0  0  0
   -1.6001    2.7713    0.0000 H   0  0  0  0  0  0  0  0  0  0  0  0
   -0.0000    2.7713    0.0000 H   0  0  0  0  0  0  0  0  0  0  0  0
   -0.0000    0.0000    0.0000 C   0  0  0  0  0  0  0  0  0  0  0  0
    0.8000   -1.3856    0.0000 Cl  0  0  0  0  0  0  0  0  0  0  0  0
    1.5036    0.5472    0.0000 C   0  0  0  0  0  0  0  0  0  0  0  0
    1.1572    2.1093    0.0000 H   0  0  0  0  0  0  0  0  0  0  0  0
    2.3631    1.8967    0.0000 H   0  0  0  0  0  0  0  0  0  0  0  0
    2.7292   -0.4813    0.0000 C   0  0  0  0  0  0  0  0  0  0  0  0
    3.9548   -1.5097    0.0000 H   0  0  0  0  0  0  0  0  0  0  0  0
    4.2327    0.0660    0.0000 H   0  0  0  0  0  0  0  0  0  0  0  0
    2.4513   -2.0569    0.0000 H   0  0  0  0  0  0  0  0  0  0  0  0
   -1.3857   -0.8000    0.0000 C   0  0  0  0  0  0  0  0  0  0  0  0
   -2.7713   -1.6000    0.0000 H   0  0  0  0  0  0  0  0  0  0  0  0
   -1.3857   -2.4000    0.0000 H   0  0  0  0  0  0  0  0  0  0  0  0
   -2.7713    0.0000    0.0000 H   0  0  0  0  0  0  0  0  0  0  0  0
  1  2  1  0  0  0  0
  2  3  1  0  0  0  0
  2  4  1  0  0  0  0
  2  5  1  0  0  0  0
  5  6  1  0  0  0  0
  5  7  1  0  0  0  0
  7  8  1  0  0  0  0
  7  9  1  0  0  0  0
  7 10  1  0  0  0  0
 10 11  1  0  0  0  0
 10 12  1  0  0  0  0
 10 13  1  0  0  0  0
  5 14  1  0  0  0  0
 14 15  1  0  0  0  0
 14 16  1  0  0  0  0
 14 17  1  0  0  0  0
M  END
> <ChemID>
105580

> <source_casrn>
23010-04-0

> <CAS>
23010-04-0

> <SMILES>
CCC(C)(Cl)CCl

> <NAME>
BUTANE, 1,2-DICHLORO-2-METHYL-

> <preferred_name>
1,2-Dichloro-2-methylbutane

> <iupac>
1,2-dichloro-2-methylbutane

> <MPID>
24418

> <dsstox_substance_id>
DTXSID2021571

> <Canonical_QSARr>
CCC(C)(Cl)CCl

> <InChI_Code_QSARr>
InChI=1S/C5H10Cl2/c1-3-5(2,7)4-6/h3-4H2,1-2H3

> <InChI Key_QSARr>
KVPMOKIQASUYOV-UHFFFAOYSA-N

> <Salt_Solvent>
?

> <BP>
134.0

$$$$
105584
  -INDIGO-08031720192D

 22 22  0  0  0  0  0  0  0  0999 V2000
    2.4000   -1.3856    0.0000 C   0  0  0  0  0  0  0  0  0  0  0  0
    1.6000    0.0000    0.0000 C   0  0  0  0  0  0  0  0  0  0  0  0
    2.4000    1.3856    0.0000 O   0  0  0  0  0  0  0  0  0  0  0  0
    4.0000    1.3856    0.0000 H   0  0  0  0  0  0  0  0  0  0  0  0
   -0.0001    0.0000    0.0000 C   0  0  0  0  0  0  0  0  0  0  0  0
   -0.8000    1.3856    0.0000 C   0  0  0  0  0  0  0  0  0  0  0  0
   -1.6000    2.7713    0.0000 H   0  0  0  0  0  0  0  0  0  0  0  0
   -2.4000    1.3856    0.0000 H   0  0  0  0  0  0  0  0  0  0  0  0
   -0.0001    2.7713    0.0000 H   0  0  0  0  0  0  0  0  0  0  0  0
   -0.8000   -1.3856    0.0000 C   0  0  0  0  0  0  0  0  0  0  0  0
   -2.4000   -1.3856    0.0000 H   0  0  0  0  0  0  0  0  0  0  0  0
   -0.0001   -2.7713    0.0000 C   0  0  0  0  0  0  0  0  0  0  0  0
   -0.8000   -4.1569    0.0000 H   0  0  0  0  0  0  0  0  0  0  0  0
    1.6000   -2.7713    0.0000 C   0  0  0  0  0  0  0  0  0  0  0  0
    2.4000   -4.1569    0.0000 H   0  0  0  0  0  0  0  0  0  0  0  0
    4.0000   -1.3856    0.0000 C   0  0  0  0  0  0  0  0  0  0  0  0
    4.7999   -2.7713    0.0000 O   0  0  0  0  0  0  0  0  0  0  0  0
    6.4000   -2.7713    0.0000 C   0  0  0  0  0  0  0  0  0  0  0  0
    8.0000   -2.7713    0.0000 H   0  0  0  0  0  0  0  0  0  0  0  0
    7.2000   -4.1569    0.0000 H   0  0  0  0  0  0  0  0  0  0  0  0
    7.2000   -1.3856    0.0000 H   0  0  0  0  0  0  0  0  0  0  0  0
    4.7999    0.0000    0.0000 O   0  0  0  0  0  0  0  0  0  0  0  0
  1  2  1  0  0  0  0
  2  3  1  0  0  0  0
  3  4  1  0  0  0  0
  2  5  2  0  0  0  0
  5  6  1  0  0  0  0
  6  7  1  0  0  0  0
  6  8  1  0  0  0  0
  6  9  1  0  0  0  0
  5 10  1  0  0  0  0
 10 11  1  0  0  0  0
 10 12  2  0  0  0  0
 12 13  1  0  0  0  0
 12 14  1  0  0  0  0
 14  1  2  0  0  0  0
 14 15  1  0  0  0  0
  1 16  1  0  0  0  0
 16 17  1  0  0  0  0
 17 18  1  0  0  0  0
 18 19  1  0  0  0  0
 18 20  1  0  0  0  0
 18 21  1  0  0  0  0
 16 22  2  0  0  0  0
M  END
> <ChemID>
105584

> <source_casrn>
23287-26-5

> <CAS>
23287-26-5

> <SMILES>
Cc1cccc(c1O)C(=O)OC

> <NAME>
Benzoic acid, 2-hydroxy-3-methyl-, methyl ester

> <preferred_name>
Benzoic acid, 2-hydroxy-3-methyl-, methyl ester

> <iupac>
Methyl 2-hydroxy-3-methylbenzoate

> <MPID>
24422

> <dsstox_substance_id>
DTXSID1066869

> <Canonical_QSARr>
Cc1cccc(c1O)C(=O)OC

> <InChI_Code_QSARr>
InChI=1S/C9H10O3/c1-6-4-3-5-7(8(6)10)9(11)12-2/h3-5,10H,1-2H3

> <InChI Key_QSARr>
SUHLUMKZPUMAFP-UHFFFAOYSA-N

> <Salt_Solvent>
?

> <BP>
235.0

$$$$
105588
  -INDIGO-08031720192D

 31 31  0  0  0  0  0  0  0  0999 V2000
    2.7713    1.6000    0.0000 O   0  0  0  0  0  0  0  0  0  0  0  0
    2.7713   -0.0000    0.0000 C   0  0  0  0  0  0  0  0  0  0  0  0
    4.1569   -0.8000    0.0000 O   0  0  0  0  0  0  0  0  0  0  0  0
    5.5427   -0.0000    0.0000 C   0  0  0  0  0  0  0  0  0  0  0  0
    4.9302    1.4782    0.0000 H   0  0  0  0  0  0  0  0  0  0  0  0
    6.1549    1.4782    0.0000 H   0  0  0  0  0  0  0  0  0  0  0  0
    6.9283   -0.8000    0.0000 C   0  0  0  0  0  0  0  0  0  0  0  0
    7.5405   -2.2782    0.0000 H   0  0  0  0  0  0  0  0  0  0  0  0
    6.3160   -2.2782    0.0000 H   0  0  0  0  0  0  0  0  0  0  0  0
    8.3138   -0.0000    0.0000 O   0  0  0  0  0  0  0  0  0  0  0  0
    9.6994   -0.8000    0.0000 C   0  0  0  0  0  0  0  0  0  0  0  0
    9.6994   -2.4000    0.0000 C   0  0  0  0  0  0  0  0  0  0  0  0
    8.3138   -3.2000    0.0000 H   0  0  0  0  0  0  0  0  0  0  0  0
   11.0853   -3.2000    0.0000 C   0  0  0  0  0  0  0  0  0  0  0  0
   11.0853   -4.8000    0.0000 H   0  0  0  0  0  0  0  0  0  0  0  0
   12.4708   -2.4000    0.0000 C   0  0  0  0  0  0  0  0  0  0  0  0
   13.8564   -3.2000    0.0000 H   0  0  0  0  0  0  0  0  0  0  0  0
   12.4708   -0.8000    0.0000 C   0  0  0  0  0  0  0  0  0  0  0  0
   13.8564   -0.0000    0.0000 H   0  0  0  0  0  0  0  0  0  0  0  0
   11.0853   -0.0000    0.0000 C   0  0  0  0  0  0  0  0  0  0  0  0
   11.0853    1.6000    0.0000 H   0  0  0  0  0  0  0  0  0  0  0  0
    1.3857   -0.8000    0.0000 C   0  0  0  0  0  0  0  0  0  0  0  0
    1.9979   -2.2782    0.0000 H   0  0  0  0  0  0  0  0  0  0  0  0
    0.7735   -2.2782    0.0000 H   0  0  0  0  0  0  0  0  0  0  0  0
    0.0001   -0.0000    0.0000 C   0  0  0  0  0  0  0  0  0  0  0  0
   -0.6124    1.4782    0.0000 H   0  0  0  0  0  0  0  0  0  0  0  0
    0.6124    1.4782    0.0000 H   0  0  0  0  0  0  0  0  0  0  0  0
   -1.3857   -0.8000    0.0000 C   0  0  0  0  0  0  0  0  0  0  0  0
   -2.7713   -1.6000    0.0000 H   0  0  0  0  0  0  0  0  0  0  0  0
   -2.7713   -0.0000    0.0000 H   0  0  0  0  0  0  0  0  0  0  0  0
   -1.3857   -2.4000    0.0000 H   0  0  0  0  0  0  0  0  0  0  0  0
  1  2  2  0  0  0  0
  2  3  1  0  0  0  0
  3  4  1  0  0  0  0
  4  5  1  0  0  0  0
  4  6  1  0  0  0  0
  4  7  1  0  0  0  0
  7  8  1  0  0  0  0
  7  9  1  0  0  0  0
  7 10  1  0  0  0  0
 10 11  1  0  0  0  0
 11 12  1  0  0  0  0
 12 13  1  0  0  0  0
 12 14  2  0  0  0  0
 14 15  1  0  0  0  0
 14 16  1  0  0  0  0
 16 17  1  0  0  0  0
 16 18  2  0  0  0  0
 18 19  1  0  0  0  0
 18 20  1  0  0  0  0
 20 11  2  0  0  0  0
 20 21  1  0  0  0  0
  2 22  1  0  0  0  0
 22 23  1  0  0  0  0
 22 24  1  0  0  0  0
 22 25  1  0  0  0  0
 25 26  1  0  0  0  0
 25 27  1  0  0  0  0
 25 28  1  0  0  0  0
 28 29  1  0  0  0  0
 28 30  1  0  0  0  0
 28 31  1  0  0  0  0
M  END
> <ChemID>
105588

> <source_casrn>
23511-70-8

> <CAS>
23511-70-8

> <SMILES>
CCCC(=O)OCCOc1ccccc1

> <NAME>
Butanoic acid, 2-phenoxyethyl ester

> <preferred_name>
2-Phenoxyethyl butyrate

> <iupac>
2-(phenoxy)ethyl butanoate

> <MPID>
24426

> <dsstox_substance_id>
DTXSID5066902

> <Canonical_QSARr>
CCCC(=O)OCCOc1ccccc1

> <InChI_Code_QSARr>
InChI=1S/C12H16O3/c1-2-6-12(13)15-10-9-14-11-7-4-3-5-8-11/h3-5,7-8H,2,6,9-10H2,1H3

> <InChI Key_QSARr>
OOZDRLVUFHSKIQ-UHFFFAOYSA-N

> <Salt_Solvent>
?

> <BP>
251.0

$$$$
105592
  -INDIGO-08031720192D

 27 27  0  0  0  0  0  0  0  0999 V2000
    0.8000    1.3857    0.0000 C   0  0  0  0  0  0  0  0  0  0  0  0
    2.4000    1.3857    0.0000 C   0  0  0  0  0  0  0  0  0  0  0  0
    3.2000    2.7713    0.0000 H   0  0  0  0  0  0  0  0  0  0  0  0
    3.2000   -0.0000    0.0000 C   0  0  0  0  0  0  0  0  0  0  0  0
    4.7999   -0.0000    0.0000 C   0  0  0  0  0  0  0  0  0  0  0  0
    4.7999   -1.6000    0.0000 H   0  0  0  0  0  0  0  0  0  0  0  0
    6.3757   -0.2778    0.0000 C   0  0  0  0  0  0  0  0  0  0  0  0
    7.9514   -0.5557    0.0000 H   0  0  0  0  0  0  0  0  0  0  0  0
    7.4041    0.9478    0.0000 H   0  0  0  0  0  0  0  0  0  0  0  0
    6.9229   -1.7813    0.0000 H   0  0  0  0  0  0  0  0  0  0  0  0
    4.7999    1.6000    0.0000 C   0  0  0  0  0  0  0  0  0  0  0  0
    4.7999    3.2000    0.0000 H   0  0  0  0  0  0  0  0  0  0  0  0
    6.1857    2.4000    0.0000 H   0  0  0  0  0  0  0  0  0  0  0  0
    6.1857    0.8000    0.0000 H   0  0  0  0  0  0  0  0  0  0  0  0
    2.4000   -1.3856    0.0000 C   0  0  0  0  0  0  0  0  0  0  0  0
    3.7856   -2.1856    0.0000 H   0  0  0  0  0  0  0  0  0  0  0  0
    2.1221   -2.9613    0.0000 H   0  0  0  0  0  0  0  0  0  0  0  0
    0.8000   -1.3856    0.0000 C   0  0  0  0  0  0  0  0  0  0  0  0
    1.0779   -2.9613    0.0000 H   0  0  0  0  0  0  0  0  0  0  0  0
   -0.7036   -1.9329    0.0000 H   0  0  0  0  0  0  0  0  0  0  0  0
    0.0000   -0.0000    0.0000 C   0  0  0  0  0  0  0  0  0  0  0  0
   -1.2257   -1.0285    0.0000 H   0  0  0  0  0  0  0  0  0  0  0  0
   -1.2257    1.0284    0.0000 C   0  0  0  0  0  0  0  0  0  0  0  0
   -2.4513    2.0570    0.0000 H   0  0  0  0  0  0  0  0  0  0  0  0
   -2.7292    0.4812    0.0000 H   0  0  0  0  0  0  0  0  0  0  0  0
   -0.9479    2.6041    0.0000 H   0  0  0  0  0  0  0  0  0  0  0  0
    0.0000    2.7713    0.0000 O   0  0  0  0  0  0  0  0  0  0  0  0
  1  2  1  0  0  0  0
  2  3  1  0  0  0  0
  2  4  2  0  0  0  0
  4  5  1  0  0  0  0
  5  6  1  0  0  0  0
  5  7  1  0  0  0  0
  7  8  1  0  0  0  0
  7  9  1  0  0  0  0
  7 10  1  0  0  0  0
  5 11  1  0  0  0  0
 11 12  1  0  0  0  0
 11 13  1  0  0  0  0
 11 14  1  0  0  0  0
  4 15  1  0  0  0  0
 15 16  1  0  0  0  0
 15 17  1  0  0  0  0
 15 18  1  0  0  0  0
 18 19  1  0  0  0  0
 18 20  1  0  0  0  0
 18 21  1  0  0  0  0
 21  1  1  0  0  0  0
 21 22  1  0  0  0  0
 21 23  1  0  0  0  0
 23 24  1  0  0  0  0
 23 25  1  0  0  0  0
 23 26  1  0  0  0  0
  1 27  2  0  0  0  0
M  END
> <ChemID>
105592

> <source_casrn>
23733-68-8

> <CAS>
NOCAS_871338

> <SMILES>
CC(C)C1CCC(C)C(=O)C=1

> <NAME>
3-Isopropyl-6-methyl-cyclohex-2-enone

> <preferred_name>


> <iupac>


> <MPID>
24430

> <dsstox_substance_id>
DTXSID00871338

> <Canonical_QSARr>
CC(C)C1CCC(C)C(=O)C=1

> <InChI_Code_QSARr>
InChI=1S/C10H16O/c1-7(2)9-5-4-8(3)10(11)6-9/h6-8H,4-5H2,1-3H3

> <InChI Key_QSARr>
RLYSXAZAJUMULG-UHFFFAOYSA-N

> <Salt_Solvent>
?

> <BP>
235.5

$$$$
105597
  -INDIGO-08031720192D

 21 22  0  0  0  0  0  0  0  0999 V2000
    4.1569    0.8000    0.0000 N   0  0  0  0  0  0  0  0  0  0  0  0
    5.5426   -0.0000    0.0000 H   0  0  0  0  0  0  0  0  0  0  0  0
    4.1569    2.4000    0.0000 H   0  0  0  0  0  0  0  0  0  0  0  0
    2.7713   -0.0000    0.0000 C   0  0  0  0  0  0  0  0  0  0  0  0
    1.3857    0.8000    0.0000 C   0  0  0  0  0  0  0  0  0  0  0  0
    1.3857    2.4000    0.0000 H   0  0  0  0  0  0  0  0  0  0  0  0
   -0.0001   -0.0000    0.0000 C   0  0  0  0  0  0  0  0  0  0  0  0
   -1.5218    0.4944    0.0000 C   0  0  0  0  0  0  0  0  0  0  0  0
   -0.8710    1.9561    0.0000 H   0  0  0  0  0  0  0  0  0  0  0  0
   -2.9074    1.2944    0.0000 H   0  0  0  0  0  0  0  0  0  0  0  0
   -2.4621   -0.8000    0.0000 C   0  0  0  0  0  0  0  0  0  0  0  0
   -3.6512    0.2706    0.0000 H   0  0  0  0  0  0  0  0  0  0  0  0
   -3.6512   -1.8706    0.0000 H   0  0  0  0  0  0  0  0  0  0  0  0
   -1.5218   -2.0944    0.0000 C   0  0  0  0  0  0  0  0  0  0  0  0
   -2.9074   -2.8944    0.0000 H   0  0  0  0  0  0  0  0  0  0  0  0
   -0.8710   -3.5561    0.0000 H   0  0  0  0  0  0  0  0  0  0  0  0
   -0.0001   -1.6000    0.0000 C   0  0  0  0  0  0  0  0  0  0  0  0
    1.3857   -2.4000    0.0000 C   0  0  0  0  0  0  0  0  0  0  0  0
    1.3857   -4.0000    0.0000 H   0  0  0  0  0  0  0  0  0  0  0  0
    2.7713   -1.6000    0.0000 C   0  0  0  0  0  0  0  0  0  0  0  0
    4.1569   -2.4000    0.0000 H   0  0  0  0  0  0  0  0  0  0  0  0
  1  2  1  0  0  0  0
  1  3  1  0  0  0  0
  1  4  1  0  0  0  0
  4  5  1  0  0  0  0
  5  6  1  0  0  0  0
  5  7  2  0  0  0  0
  7  8  1  0  0  0  0
  8  9  1  0  0  0  0
  8 10  1  0  0  0  0
  8 11  1  0  0  0  0
 11 12  1  0  0  0  0
 11 13  1  0  0  0  0
 11 14  1  0  0  0  0
 14 15  1  0  0  0  0
 14 16  1  0  0  0  0
 14 17  1  0  0  0  0
 17  7  1  0  0  0  0
 17 18  2  0  0  0  0
 18 19  1  0  0  0  0
 18 20  1  0  0  0  0
 20  4  2  0  0  0  0
 20 21  1  0  0  0  0
M  END
> <ChemID>
105597

> <source_casrn>
24425-40-9

> <CAS>
24425-40-9

> <SMILES>
Nc1cc2CCCc2cc1

> <NAME>
Indan-5-ylamine

> <preferred_name>
Indan-5-amine

> <iupac>
2,3-dihydro-1H-inden-5-amine

> <MPID>
24434

> <dsstox_substance_id>
DTXSID80179182

> <Canonical_QSARr>
Nc1cc2CCCc2cc1

> <InChI_Code_QSARr>
InChI=1S/C9H11N/c10-9-5-4-7-2-1-3-8(7)6-9/h4-6H,1-3,10H2

> <InChI Key_QSARr>
LEWZOBYWGWKNCK-UHFFFAOYSA-N

> <Salt_Solvent>
?

> <BP>
248.0

$$$$
105602
  -INDIGO-08031720192D

 23 23  0  0  0  0  0  0  0  0999 V2000
    0.8000    1.3856    0.0000 C   0  0  0  0  0  0  0  0  0  0  0  0
    2.4000    1.3856    0.0000 C   0  0  0  0  0  0  0  0  0  0  0  0
    3.2001    2.7713    0.0000 C   0  0  0  0  0  0  0  0  0  0  0  0
    4.0000    4.1569    0.0000 H   0  0  0  0  0  0  0  0  0  0  0  0
    4.8000    2.7713    0.0000 H   0  0  0  0  0  0  0  0  0  0  0  0
    2.4000    4.1569    0.0000 H   0  0  0  0  0  0  0  0  0  0  0  0
    3.2001    0.0000    0.0000 C   0  0  0  0  0  0  0  0  0  0  0  0
    4.8000    0.0000    0.0000 H   0  0  0  0  0  0  0  0  0  0  0  0
    2.4000   -1.3856    0.0000 C   0  0  0  0  0  0  0  0  0  0  0  0
    3.2001   -2.7713    0.0000 H   0  0  0  0  0  0  0  0  0  0  0  0
    0.8000   -1.3856    0.0000 C   0  0  0  0  0  0  0  0  0  0  0  0
    0.0000   -2.7713    0.0000 H   0  0  0  0  0  0  0  0  0  0  0  0
    0.0000    0.0000    0.0000 C   0  0  0  0  0  0  0  0  0  0  0  0
   -1.6000    0.0000    0.0000 C   0  0  0  0  0  0  0  0  0  0  0  0
   -1.8088    1.5863    0.0000 H   0  0  0  0  0  0  0  0  0  0  0  0
   -2.8694    0.9740    0.0000 H   0  0  0  0  0  0  0  0  0  0  0  0
   -2.4001   -1.3856    0.0000 C   0  0  0  0  0  0  0  0  0  0  0  0
   -4.0000   -1.3856    0.0000 H   0  0  0  0  0  0  0  0  0  0  0  0
   -3.2000   -2.7713    0.0000 H   0  0  0  0  0  0  0  0  0  0  0  0
   -3.2000    0.0000    0.0000 H   0  0  0  0  0  0  0  0  0  0  0  0
    0.0000    2.7713    0.0000 N   0  0  0  0  0  0  0  0  0  0  0  0
   -1.6000    2.7713    0.0000 H   0  0  0  0  0  0  0  0  0  0  0  0
    0.8000    4.1569    0.0000 H   0  0  0  0  0  0  0  0  0  0  0  0
  1  2  1  0  0  0  0
  2  3  1  0  0  0  0
  3  4  1  0  0  0  0
  3  5  1  0  0  0  0
  3  6  1  0  0  0  0
  2  7  2  0  0  0  0
  7  8  1  0  0  0  0
  7  9  1  0  0  0  0
  9 10  1  0  0  0  0
  9 11  2  0  0  0  0
 11 12  1  0  0  0  0
 11 13  1  0  0  0  0
 13  1  2  0  0  0  0
 13 14  1  0  0  0  0
 14 15  1  0  0  0  0
 14 16  1  0  0  0  0
 14 17  1  0  0  0  0
 17 18  1  0  0  0  0
 17 19  1  0  0  0  0
 17 20  1  0  0  0  0
  1 21  1  0  0  0  0
 21 22  1  0  0  0  0
 21 23  1  0  0  0  0
M  END
> <ChemID>
105602

> <source_casrn>
24549-06-2

> <CAS>
24549-06-2

> <SMILES>
Cc1cccc(CC)c1N

> <NAME>
Benzenamine, 2-ethyl-6-methyl-

> <preferred_name>
2-Ethyl-6-methylaniline

> <iupac>
2-ethyl-6-methylaniline

> <MPID>
24438

> <dsstox_substance_id>
DTXSID7027833

> <Canonical_QSARr>
Cc1cccc(CC)c1N

> <InChI_Code_QSARr>
InChI=1S/C9H13N/c1-3-8-6-4-5-7(2)9(8)10/h4-6H,3,10H2,1-2H3

> <InChI Key_QSARr>
JJVKJJNCIILLRP-UHFFFAOYSA-N

> <Salt_Solvent>
?

> <BP>
231.0

$$$$
105610
  -INDIGO-08031720192D

 17 16  0  0  0  0  0  0  0  0999 V2000
    1.3857    0.8000    0.0000 C   0  0  0  0  0  0  0  0  0  0  0  0
    2.7713    0.0000    0.0000 C   0  0  0  0  0  0  0  0  0  0  0  0
    4.1569    0.8000    0.0000 C   0  0  0  0  0  0  0  0  0  0  0  0
    5.5426    1.6000    0.0000 H   0  0  0  0  0  0  0  0  0  0  0  0
    5.5426    0.0000    0.0000 H   0  0  0  0  0  0  0  0  0  0  0  0
    4.1569    2.4000    0.0000 H   0  0  0  0  0  0  0  0  0  0  0  0
    2.7713   -1.6000    0.0000 C   0  0  0  0  0  0  0  0  0  0  0  0
    4.1570   -2.4000    0.0000 H   0  0  0  0  0  0  0  0  0  0  0  0
    1.3857   -2.4000    0.0000 H   0  0  0  0  0  0  0  0  0  0  0  0
    0.0000    0.0000    0.0000 C   0  0  0  0  0  0  0  0  0  0  0  0
    0.6122   -1.4782    0.0000 H   0  0  0  0  0  0  0  0  0  0  0  0
   -0.6122   -1.4782    0.0000 H   0  0  0  0  0  0  0  0  0  0  0  0
   -1.3856    0.8000    0.0000 C   0  0  0  0  0  0  0  0  0  0  0  0
   -2.7713    1.6000    0.0000 H   0  0  0  0  0  0  0  0  0  0  0  0
   -2.7713    0.0000    0.0000 H   0  0  0  0  0  0  0  0  0  0  0  0
   -1.3856    2.4000    0.0000 H   0  0  0  0  0  0  0  0  0  0  0  0
    1.3857    2.4000    0.0000 O   0  0  0  0  0  0  0  0  0  0  0  0
  1  2  1  0  0  0  0
  2  3  1  0  0  0  0
  3  4  1  0  0  0  0
  3  5  1  0  0  0  0
  3  6  1  0  0  0  0
  2  7  2  0  0  0  0
  7  8  1  0  0  0  0
  7  9  1  0  0  0  0
  1 10  1  0  0  0  0
 10 11  1  0  0  0  0
 10 12  1  0  0  0  0
 10 13  1  0  0  0  0
 13 14  1  0  0  0  0
 13 15  1  0  0  0  0
 13 16  1  0  0  0  0
  1 17  2  0  0  0  0
M  END
> <ChemID>
105610

> <source_casrn>
25044-01-3

> <CAS>
25044-01-3

> <SMILES>
CC(=C)C(=O)CC

> <NAME>
1-PENTEN-3-ONE, 2-METHYL-

> <preferred_name>
1-Penten-3-one, 2-methyl-

> <iupac>
2-methylpent-1-en-3-one

> <MPID>
24444

> <dsstox_substance_id>
DTXSID1073448

> <Canonical_QSARr>
CC(=C)C(=O)CC

> <InChI_Code_QSARr>
InChI=1S/C6H10O/c1-4-6(7)5(2)3/h2,4H2,1,3H3

> <InChI Key_QSARr>
GHHGVSCQWPVENX-UHFFFAOYSA-N

> <Salt_Solvent>
?

> <BP>
118.5

$$$$
105621
  -INDIGO-08031720192D

 23 22  0  0  0  0  0  0  0  0999 V2000
   -0.2779   -1.5757    0.0000 O   0  0  0  0  0  0  0  0  0  0  0  0
    0.9478   -2.6041    0.0000 H   0  0  0  0  0  0  0  0  0  0  0  0
   -0.0000    0.0000    0.0000 C   0  0  0  0  0  0  0  0  0  0  0  0
   -1.5757   -0.2779    0.0000 C   0  0  0  0  0  0  0  0  0  0  0  0
   -2.9949    0.4610    0.0000 H   0  0  0  0  0  0  0  0  0  0  0  0
   -2.0569    1.2481    0.0000 H   0  0  0  0  0  0  0  0  0  0  0  0
   -2.1230   -1.7814    0.0000 C   0  0  0  0  0  0  0  0  0  0  0  0
   -1.0944   -3.0070    0.0000 H   0  0  0  0  0  0  0  0  0  0  0  0
   -3.6987   -2.0592    0.0000 C   0  0  0  0  0  0  0  0  0  0  0  0
   -4.2459   -3.5627    0.0000 H   0  0  0  0  0  0  0  0  0  0  0  0
   -4.7271   -0.8335    0.0000 H   0  0  0  0  0  0  0  0  0  0  0  0
    1.6000    0.0000    0.0000 C   0  0  0  0  0  0  0  0  0  0  0  0
    1.8089    1.5863    0.0000 H   0  0  0  0  0  0  0  0  0  0  0  0
    2.8694    0.9740    0.0000 H   0  0  0  0  0  0  0  0  0  0  0  0
    2.6285   -1.2257    0.0000 C   0  0  0  0  0  0  0  0  0  0  0  0
    2.0813   -2.7292    0.0000 H   0  0  0  0  0  0  0  0  0  0  0  0
    4.2042   -0.9478    0.0000 C   0  0  0  0  0  0  0  0  0  0  0  0
    5.2326   -2.1735    0.0000 H   0  0  0  0  0  0  0  0  0  0  0  0
    4.7515    0.5557    0.0000 H   0  0  0  0  0  0  0  0  0  0  0  0
   -0.0000    1.6000    0.0000 C   0  0  0  0  0  0  0  0  0  0  0  0
   -0.0000    3.2000    0.0000 H   0  0  0  0  0  0  0  0  0  0  0  0
    1.2256    2.6284    0.0000 H   0  0  0  0  0  0  0  0  0  0  0  0
   -1.3856    2.4000    0.0000 H   0  0  0  0  0  0  0  0  0  0  0  0
  1  2  1  0  0  0  0
  1  3  1  0  0  0  0
  3  4  1  0  0  0  0
  4  5  1  0  0  0  0
  4  6  1  0  0  0  0
  4  7  1  0  0  0  0
  7  8  1  0  0  0  0
  7  9  2  0  0  0  0
  9 10  1  0  0  0  0
  9 11  1  0  0  0  0
  3 12  1  0  0  0  0
 12 13  1  0  0  0  0
 12 14  1  0  0  0  0
 12 15  1  0  0  0  0
 15 16  1  0  0  0  0
 15 17  2  0  0  0  0
 17 18  1  0  0  0  0
 17 19  1  0  0  0  0
  3 20  1  0  0  0  0
 20 21  1  0  0  0  0
 20 22  1  0  0  0  0
 20 23  1  0  0  0  0
M  END
> <ChemID>
105621

> <source_casrn>
25201-40-5

> <CAS>
25201-40-5

> <SMILES>
CC(O)(CC=C)CC=C

> <NAME>
4-Methyl-hepta-1,6-dien-4-ol

> <preferred_name>
1,6-Heptadien-4-ol, 4-methyl-

> <iupac>
4-Methylhepta-1,6-dien-4-ol

> <MPID>
24451

> <dsstox_substance_id>
DTXSID20179868

> <Canonical_QSARr>
CC(O)(CC=C)CC=C

> <InChI_Code_QSARr>
InChI=1S/C8H14O/c1-4-6-8(3,9)7-5-2/h4-5,9H,1-2,6-7H2,3H3

> <InChI Key_QSARr>
WAXJJHZQRWWQIR-UHFFFAOYSA-N

> <Salt_Solvent>
?

> <BP>
158.4

$$$$
105632
  -INDIGO-08031720192D

 20 19  0  0  0  0  0  0  0  0999 V2000
    0.8000    1.3856    0.0000 C   0  0  0  0  0  0  0  0  0  0  0  0
    1.6000    2.7713    0.0000 H   0  0  0  0  0  0  0  0  0  0  0  0
   -0.0000    2.7713    0.0000 H   0  0  0  0  0  0  0  0  0  0  0  0
   -0.0000    0.0000    0.0000 C   0  0  0  0  0  0  0  0  0  0  0  0
   -0.8000   -1.3856    0.0000 H   0  0  0  0  0  0  0  0  0  0  0  0
   -1.5036    0.5472    0.0000 C   0  0  0  0  0  0  0  0  0  0  0  0
   -1.1572    2.1093    0.0000 H   0  0  0  0  0  0  0  0  0  0  0  0
   -2.3632    1.8967    0.0000 H   0  0  0  0  0  0  0  0  0  0  0  0
   -2.7291   -0.4813    0.0000 C   0  0  0  0  0  0  0  0  0  0  0  0
   -3.0755   -2.0433    0.0000 H   0  0  0  0  0  0  0  0  0  0  0  0
   -1.8695   -1.8307    0.0000 H   0  0  0  0  0  0  0  0  0  0  0  0
   -4.2327    0.0660    0.0000 C   0  0  0  0  0  0  0  0  0  0  0  0
   -5.7362    0.6132    0.0000 H   0  0  0  0  0  0  0  0  0  0  0  0
   -5.4584   -0.9624    0.0000 H   0  0  0  0  0  0  0  0  0  0  0  0
   -4.5105    1.6417    0.0000 H   0  0  0  0  0  0  0  0  0  0  0  0
    1.3856   -0.8000    0.0000 C   0  0  0  0  0  0  0  0  0  0  0  0
    2.7713   -1.6000    0.0000 H   0  0  0  0  0  0  0  0  0  0  0  0
    1.3856   -2.4000    0.0000 H   0  0  0  0  0  0  0  0  0  0  0  0
    2.7713    0.0000    0.0000 H   0  0  0  0  0  0  0  0  0  0  0  0
    2.4000    1.3856    0.0000 Br  0  0  0  0  0  0  0  0  0  0  0  0
  1  2  1  0  0  0  0
  1  3  1  0  0  0  0
  1  4  1  0  0  0  0
  4  5  1  0  0  0  0
  4  6  1  0  0  0  0
  6  7  1  0  0  0  0
  6  8  1  0  0  0  0
  6  9  1  0  0  0  0
  9 10  1  0  0  0  0
  9 11  1  0  0  0  0
  9 12  1  0  0  0  0
 12 13  1  0  0  0  0
 12 14  1  0  0  0  0
 12 15  1  0  0  0  0
  4 16  1  0  0  0  0
 16 17  1  0  0  0  0
 16 18  1  0  0  0  0
 16 19  1  0  0  0  0
  1 20  1  0  0  0  0
M  END
> <ChemID>
105632

> <source_casrn>
25346-33-2

> <CAS>
NOCAS_871348

> <SMILES>
CCCC(C)CBr

> <NAME>
Pentane, 1-bromo-2-methyl-

> <preferred_name>


> <iupac>


> <MPID>
24456

> <dsstox_substance_id>
DTXSID50871348

> <Canonical_QSARr>
CCCC(C)CBr

> <InChI_Code_QSARr>
InChI=1S/C6H13Br/c1-3-4-6(2)5-7/h6H,3-5H2,1-2H3

> <InChI Key_QSARr>
GSYMWZIKZUHBKV-UHFFFAOYSA-N

> <Salt_Solvent>
?

> <BP>
141.0

$$$$
105642
  -INDIGO-08031720192D

 30 31  0  0  0  0  0  0  0  0999 V2000
   -0.7999    1.3857    0.0000 N   0  0  0  0  0  0  0  0  0  0  0  0
   -0.2528    2.8891    0.0000 H   0  0  0  0  0  0  0  0  0  0  0  0
   -2.4001    1.3857    0.0000 H   0  0  0  0  0  0  0  0  0  0  0  0
    0.0001    0.0000    0.0000 C   0  0  0  0  0  0  0  0  0  0  0  0
    0.8001   -1.3856    0.0000 H   0  0  0  0  0  0  0  0  0  0  0  0
    1.3856    0.8000    0.0000 C   0  0  0  0  0  0  0  0  0  0  0  0
    0.7734    2.2782    0.0000 H   0  0  0  0  0  0  0  0  0  0  0  0
    1.9979    2.2782    0.0000 H   0  0  0  0  0  0  0  0  0  0  0  0
    2.7713    0.0000    0.0000 C   0  0  0  0  0  0  0  0  0  0  0  0
    2.7713   -1.6000    0.0000 C   0  0  0  0  0  0  0  0  0  0  0  0
    1.3856   -2.4000    0.0000 H   0  0  0  0  0  0  0  0  0  0  0  0
    4.1570   -2.4000    0.0000 C   0  0  0  0  0  0  0  0  0  0  0  0
    4.1570   -4.0001    0.0000 H   0  0  0  0  0  0  0  0  0  0  0  0
    5.5425   -1.6000    0.0000 C   0  0  0  0  0  0  0  0  0  0  0  0
    6.9282   -2.4000    0.0000 H   0  0  0  0  0  0  0  0  0  0  0  0
    5.5425    0.0000    0.0000 C   0  0  0  0  0  0  0  0  0  0  0  0
    6.9282    0.8000    0.0000 H   0  0  0  0  0  0  0  0  0  0  0  0
    4.1570    0.8000    0.0000 C   0  0  0  0  0  0  0  0  0  0  0  0
    4.1570    2.4000    0.0000 H   0  0  0  0  0  0  0  0  0  0  0  0
   -1.3856   -0.8000    0.0000 C   0  0  0  0  0  0  0  0  0  0  0  0
   -2.7713    0.0000    0.0000 C   0  0  0  0  0  0  0  0  0  0  0  0
   -3.5713    1.3857    0.0000 H   0  0  0  0  0  0  0  0  0  0  0  0
   -4.1569   -0.8000    0.0000 C   0  0  0  0  0  0  0  0  0  0  0  0
   -5.5426    0.0000    0.0000 H   0  0  0  0  0  0  0  0  0  0  0  0
   -4.1569   -2.4000    0.0000 C   0  0  0  0  0  0  0  0  0  0  0  0
   -5.5426   -3.2000    0.0000 H   0  0  0  0  0  0  0  0  0  0  0  0
   -2.7713   -3.2000    0.0000 C   0  0  0  0  0  0  0  0  0  0  0  0
   -2.7713   -4.8000    0.0000 H   0  0  0  0  0  0  0  0  0  0  0  0
   -1.3856   -2.4000    0.0000 C   0  0  0  0  0  0  0  0  0  0  0  0
    0.0001   -3.2000    0.0000 H   0  0  0  0  0  0  0  0  0  0  0  0
  1  2  1  0  0  0  0
  1  3  1  0  0  0  0
  1  4  1  0  0  0  0
  4  5  1  0  0  0  0
  4  6  1  0  0  0  0
  6  7  1  0  0  0  0
  6  8  1  0  0  0  0
  6  9  1  0  0  0  0
  9 10  1  0  0  0  0
 10 11  1  0  0  0  0
 10 12  2  0  0  0  0
 12 13  1  0  0  0  0
 12 14  1  0  0  0  0
 14 15  1  0  0  0  0
 14 16  2  0  0  0  0
 16 17  1  0  0  0  0
 16 18  1  0  0  0  0
 18  9  2  0  0  0  0
 18 19  1  0  0  0  0
  4 20  1  0  0  0  0
 20 21  1  0  0  0  0
 21 22  1  0  0  0  0
 21 23  2  0  0  0  0
 23 24  1  0  0  0  0
 23 25  1  0  0  0  0
 25 26  1  0  0  0  0
 25 27  2  0  0  0  0
 27 28  1  0  0  0  0
 27 29  1  0  0  0  0
 29 20  2  0  0  0  0
 29 30  1  0  0  0  0
M  END
> <ChemID>
105642

> <source_casrn>
25611-78-3

> <CAS>
34645-25-5

> <SMILES>
N[C@H](Cc1ccccc1)c1ccccc1

> <NAME>
1,2-Diphenyl-ethylamine

> <preferred_name>
34645-25-5

> <iupac>
C14H15N

> <MPID>
24460

> <dsstox_substance_id>
DTXSID50362564

> <Canonical_QSARr>
NC(Cc1ccccc1)c1ccccc1

> <InChI_Code_QSARr>
InChI=1S/C14H15N/c15-14(13-9-5-2-6-10-13)11-12-7-3-1-4-8-12/h1-10,14H,11,15H2

> <InChI Key_QSARr>
DTGGNTMERRTPLR-UHFFFAOYSA-N

> <Salt_Solvent>
?

> <BP>
311.0

$$$$
105646
  -INDIGO-08031720192D

 15 14  0  0  0  0  0  0  0  0999 V2000
    2.7713    0.0000    0.0000 F   0  0  0  0  0  0  0  0  0  0  0  0
    1.3856   -0.8000    0.0000 C   0  0  0  0  0  0  0  0  0  0  0  0
    2.7713   -1.6000    0.0000 F   0  0  0  0  0  0  0  0  0  0  0  0
    1.3856   -2.4000    0.0000 F   0  0  0  0  0  0  0  0  0  0  0  0
    0.0001    0.0000    0.0000 C   0  0  0  0  0  0  0  0  0  0  0  0
   -0.8000   -1.3856    0.0000 H   0  0  0  0  0  0  0  0  0  0  0  0
    0.8000    1.3856    0.0000 O   0  0  0  0  0  0  0  0  0  0  0  0
    2.4000    1.3856    0.0000 C   0  0  0  0  0  0  0  0  0  0  0  0
    3.2000    2.7713    0.0000 H   0  0  0  0  0  0  0  0  0  0  0  0
    4.0000    1.3856    0.0000 F   0  0  0  0  0  0  0  0  0  0  0  0
    1.6000    2.7713    0.0000 F   0  0  0  0  0  0  0  0  0  0  0  0
   -1.3856    0.8000    0.0000 C   0  0  0  0  0  0  0  0  0  0  0  0
   -2.7713    1.6000    0.0000 F   0  0  0  0  0  0  0  0  0  0  0  0
   -2.7713    0.0000    0.0000 F   0  0  0  0  0  0  0  0  0  0  0  0
   -1.3856    2.4000    0.0000 F   0  0  0  0  0  0  0  0  0  0  0  0
  1  2  1  0  0  0  0
  2  3  1  0  0  0  0
  2  4  1  0  0  0  0
  2  5  1  0  0  0  0
  5  6  1  0  0  0  0
  5  7  1  0  0  0  0
  7  8  1  0  0  0  0
  8  9  1  0  0  0  0
  8 10  1  0  0  0  0
  8 11  1  0  0  0  0
  5 12  1  0  0  0  0
 12 13  1  0  0  0  0
 12 14  1  0  0  0  0
 12 15  1  0  0  0  0
M  END
> <ChemID>
105646

> <source_casrn>
26103-08-2

> <CAS>
26103-08-2

> <SMILES>
FC(F)OC(C(F)(F)F)C(F)(F)F

> <NAME>
CHF2-O-CH(CF3)CF3

> <preferred_name>
26103-08-2

> <iupac>
C4H2F8O

> <MPID>
24464

> <dsstox_substance_id>
DTXSID60448843

> <Canonical_QSARr>
FC(F)OC(C(F)(F)F)C(F)(F)F

> <InChI_Code_QSARr>
InChI=1S/C4H2F8O/c5-2(6)13-1(3(7,8)9)4(10,11)12/h1-2H

> <InChI Key_QSARr>
UNIYHTKWMKXESF-UHFFFAOYSA-N

> <Salt_Solvent>
?

> <BP>
42.1

$$$$
105655
  -INDIGO-08031720192D

 12 11  0  0  0  0  0  0  0  0999 V2000
   -1.3856    2.4000    0.0000 F   0  0  0  0  0  0  0  0  0  0  0  0
   -1.3856    0.8000    0.0000 C   0  0  0  0  0  0  0  0  0  0  0  0
    0.0000    0.0000    0.0000 C   0  0  0  0  0  0  0  0  0  0  0  0
   -0.6123   -1.4782    0.0000 H   0  0  0  0  0  0  0  0  0  0  0  0
    1.3856    0.8000    0.0000 O   0  0  0  0  0  0  0  0  0  0  0  0
    2.7713    0.0000    0.0000 C   0  0  0  0  0  0  0  0  0  0  0  0
    4.1569   -0.8000    0.0000 H   0  0  0  0  0  0  0  0  0  0  0  0
    4.1569    0.8000    0.0000 F   0  0  0  0  0  0  0  0  0  0  0  0
    2.7713   -1.6000    0.0000 F   0  0  0  0  0  0  0  0  0  0  0  0
    0.6123   -1.4782    0.0000 Cl  0  0  0  0  0  0  0  0  0  0  0  0
   -2.7713    1.6000    0.0000 F   0  0  0  0  0  0  0  0  0  0  0  0
   -2.7713    0.0000    0.0000 F   0  0  0  0  0  0  0  0  0  0  0  0
  1  2  1  0  0  0  0
  2  3  1  0  0  0  0
  3  4  1  0  0  0  0
  3  5  1  0  0  0  0
  5  6  1  0  0  0  0
  6  7  1  0  0  0  0
  6  8  1  0  0  0  0
  6  9  1  0  0  0  0
  3 10  1  0  0  0  0
  2 11  1  0  0  0  0
  2 12  1  0  0  0  0
M  END
> <ChemID>
105655

> <source_casrn>
26675-46-7

> <CAS>
26675-46-7

> <SMILES>
FC(F)OC(Cl)C(F)(F)F

> <NAME>
ISOFLURANE

> <preferred_name>
Isoflurane

> <iupac>
2-chloro-2-(difluoromethoxy)-1,1,1-trifluoroethane

> <MPID>
24469

> <dsstox_substance_id>
DTXSID3020752

> <Canonical_QSARr>
FC(F)OC(Cl)C(F)(F)F

> <InChI_Code_QSARr>
InChI=1S/C3H2ClF5O/c4-1(3(7,8)9)10-2(5)6/h1-2H

> <InChI Key_QSARr>
PIWKPBJCKXDKJR-UHFFFAOYSA-N

> <Salt_Solvent>
?

> <BP>
48.5

$$$$
105663
  -INDIGO-08031720192D

 69 68  0  0  0  0  0  0  0  0999 V2000
   11.0849    0.0000    0.0000 C   0  0  0  0  0  0  0  0  0  0  0  0
   11.0849   -1.6000    0.0000 H   0  0  0  0  0  0  0  0  0  0  0  0
    9.6996    0.8000    0.0000 C   0  0  0  0  0  0  0  0  0  0  0  0
    9.6996    2.4000    0.0000 H   0  0  0  0  0  0  0  0  0  0  0  0
    8.3138    0.0000    0.0000 C   0  0  0  0  0  0  0  0  0  0  0  0
    8.9263   -1.4782    0.0000 H   0  0  0  0  0  0  0  0  0  0  0  0
    7.7018   -1.4782    0.0000 H   0  0  0  0  0  0  0  0  0  0  0  0
    6.9285    0.8000    0.0000 C   0  0  0  0  0  0  0  0  0  0  0  0
    6.3160    2.2782    0.0000 H   0  0  0  0  0  0  0  0  0  0  0  0
    7.5404    2.2782    0.0000 H   0  0  0  0  0  0  0  0  0  0  0  0
    5.5426    0.0000    0.0000 C   0  0  0  0  0  0  0  0  0  0  0  0
    6.1546   -1.4782    0.0000 H   0  0  0  0  0  0  0  0  0  0  0  0
    4.9301   -1.4782    0.0000 H   0  0  0  0  0  0  0  0  0  0  0  0
    4.1568    0.8000    0.0000 C   0  0  0  0  0  0  0  0  0  0  0  0
    3.5448    2.2782    0.0000 H   0  0  0  0  0  0  0  0  0  0  0  0
    4.7693    2.2782    0.0000 H   0  0  0  0  0  0  0  0  0  0  0  0
    2.7715    0.0000    0.0000 C   0  0  0  0  0  0  0  0  0  0  0  0
    3.3834   -1.4782    0.0000 H   0  0  0  0  0  0  0  0  0  0  0  0
    2.1590   -1.4782    0.0000 H   0  0  0  0  0  0  0  0  0  0  0  0
    1.3856    0.8000    0.0000 C   0  0  0  0  0  0  0  0  0  0  0  0
    0.7732    2.2782    0.0000 H   0  0  0  0  0  0  0  0  0  0  0  0
    1.9981    2.2782    0.0000 H   0  0  0  0  0  0  0  0  0  0  0  0
   -0.0002    0.0000    0.0000 C   0  0  0  0  0  0  0  0  0  0  0  0
    0.6123   -1.4782    0.0000 H   0  0  0  0  0  0  0  0  0  0  0  0
   -0.6122   -1.4782    0.0000 H   0  0  0  0  0  0  0  0  0  0  0  0
   -1.3855    0.8000    0.0000 C   0  0  0  0  0  0  0  0  0  0  0  0
   -1.9980    2.2782    0.0000 H   0  0  0  0  0  0  0  0  0  0  0  0
   -0.7735    2.2782    0.0000 H   0  0  0  0  0  0  0  0  0  0  0  0
   -2.7713    0.0000    0.0000 C   0  0  0  0  0  0  0  0  0  0  0  0
   -2.1589   -1.4782    0.0000 H   0  0  0  0  0  0  0  0  0  0  0  0
   -3.3833   -1.4782    0.0000 H   0  0  0  0  0  0  0  0  0  0  0  0
   -4.1567    0.8000    0.0000 C   0  0  0  0  0  0  0  0  0  0  0  0
   -4.7692    2.2782    0.0000 H   0  0  0  0  0  0  0  0  0  0  0  0
   -3.5447    2.2782    0.0000 H   0  0  0  0  0  0  0  0  0  0  0  0
   -5.5425    0.0000    0.0000 C   0  0  0  0  0  0  0  0  0  0  0  0
   -4.9305   -1.4782    0.0000 H   0  0  0  0  0  0  0  0  0  0  0  0
   -6.1550   -1.4782    0.0000 H   0  0  0  0  0  0  0  0  0  0  0  0
   -6.9283    0.8000    0.0000 C   0  0  0  0  0  0  0  0  0  0  0  0
   -7.5403    2.2782    0.0000 H   0  0  0  0  0  0  0  0  0  0  0  0
   -6.3158    2.2782    0.0000 H   0  0  0  0  0  0  0  0  0  0  0  0
   -8.3137    0.0000    0.0000 C   0  0  0  0  0  0  0  0  0  0  0  0
   -9.6995   -0.8000    0.0000 H   0  0  0  0  0  0  0  0  0  0  0  0
   -9.6995    0.8000    0.0000 H   0  0  0  0  0  0  0  0  0  0  0  0
   -8.3137   -1.6000    0.0000 H   0  0  0  0  0  0  0  0  0  0  0  0
   12.4708    0.8000    0.0000 C   0  0  0  0  0  0  0  0  0  0  0  0
   11.8583    2.2782    0.0000 H   0  0  0  0  0  0  0  0  0  0  0  0
   13.0832    2.2782    0.0000 H   0  0  0  0  0  0  0  0  0  0  0  0
   13.8566    0.0000    0.0000 C   0  0  0  0  0  0  0  0  0  0  0  0
   14.4686   -1.4782    0.0000 H   0  0  0  0  0  0  0  0  0  0  0  0
   13.2441   -1.4782    0.0000 H   0  0  0  0  0  0  0  0  0  0  0  0
   15.2419    0.8000    0.0000 C   0  0  0  0  0  0  0  0  0  0  0  0
   14.6299    2.2782    0.0000 H   0  0  0  0  0  0  0  0  0  0  0  0
   15.8544    2.2782    0.0000 H   0  0  0  0  0  0  0  0  0  0  0  0
   16.6278    0.0000    0.0000 C   0  0  0  0  0  0  0  0  0  0  0  0
   17.2397   -1.4782    0.0000 H   0  0  0  0  0  0  0  0  0  0  0  0
   16.0153   -1.4782    0.0000 H   0  0  0  0  0  0  0  0  0  0  0  0
   18.0131    0.8000    0.0000 C   0  0  0  0  0  0  0  0  0  0  0  0
   17.4011    2.2782    0.0000 H   0  0  0  0  0  0  0  0  0  0  0  0
   18.6256    2.2782    0.0000 H   0  0  0  0  0  0  0  0  0  0  0  0
   19.3989    0.0000    0.0000 C   0  0  0  0  0  0  0  0  0  0  0  0
   20.0114   -1.4782    0.0000 H   0  0  0  0  0  0  0  0  0  0  0  0
   18.7869   -1.4782    0.0000 H   0  0  0  0  0  0  0  0  0  0  0  0
   20.7847    0.8000    0.0000 C   0  0  0  0  0  0  0  0  0  0  0  0
   20.1722    2.2782    0.0000 H   0  0  0  0  0  0  0  0  0  0  0  0
   21.3967    2.2782    0.0000 H   0  0  0  0  0  0  0  0  0  0  0  0
   22.1701    0.0000    0.0000 C   0  0  0  0  0  0  0  0  0  0  0  0
   23.5559   -0.8000    0.0000 H   0  0  0  0  0  0  0  0  0  0  0  0
   23.5559    0.8000    0.0000 H   0  0  0  0  0  0  0  0  0  0  0  0
   22.1701   -1.6000    0.0000 H   0  0  0  0  0  0  0  0  0  0  0  0
  1  2  1  0  0  0  0
  1  3  2  0  0  0  0
  3  4  1  0  0  0  0
  3  5  1  0  0  0  0
  5  6  1  0  0  0  0
  5  7  1  0  0  0  0
  5  8  1  0  0  0  0
  8  9  1  0  0  0  0
  8 10  1  0  0  0  0
  8 11  1  0  0  0  0
 11 12  1  0  0  0  0
 11 13  1  0  0  0  0
 11 14  1  0  0  0  0
 14 15  1  0  0  0  0
 14 16  1  0  0  0  0
 14 17  1  0  0  0  0
 17 18  1  0  0  0  0
 17 19  1  0  0  0  0
 17 20  1  0  0  0  0
 20 21  1  0  0  0  0
 20 22  1  0  0  0  0
 20 23  1  0  0  0  0
 23 24  1  0  0  0  0
 23 25  1  0  0  0  0
 23 26  1  0  0  0  0
 26 27  1  0  0  0  0
 26 28  1  0  0  0  0
 26 29  1  0  0  0  0
 29 30  1  0  0  0  0
 29 31  1  0  0  0  0
 29 32  1  0  0  0  0
 32 33  1  0  0  0  0
 32 34  1  0  0  0  0
 32 35  1  0  0  0  0
 35 36  1  0  0  0  0
 35 37  1  0  0  0  0
 35 38  1  0  0  0  0
 38 39  1  0  0  0  0
 38 40  1  0  0  0  0
 38 41  1  0  0  0  0
 41 42  1  0  0  0  0
 41 43  1  0  0  0  0
 41 44  1  0  0  0  0
  1 45  1  0  0  0  0
 45 46  1  0  0  0  0
 45 47  1  0  0  0  0
 45 48  1  0  0  0  0
 48 49  1  0  0  0  0
 48 50  1  0  0  0  0
 48 51  1  0  0  0  0
 51 52  1  0  0  0  0
 51 53  1  0  0  0  0
 51 54  1  0  0  0  0
 54 55  1  0  0  0  0
 54 56  1  0  0  0  0
 54 57  1  0  0  0  0
 57 58  1  0  0  0  0
 57 59  1  0  0  0  0
 57 60  1  0  0  0  0
 60 61  1  0  0  0  0
 60 62  1  0  0  0  0
 60 63  1  0  0  0  0
 63 64  1  0  0  0  0
 63 65  1  0  0  0  0
 63 66  1  0  0  0  0
 66 67  1  0  0  0  0
 66 68  1  0  0  0  0
 66 69  1  0  0  0  0
M  END
> <ChemID>
105663

> <source_casrn>
27519-02-4

> <CAS>
27519-02-4

> <SMILES>
CCCCCCCCCCCCC/C=C\CCCCCCCC

> <NAME>
9-Tricosene, (Z)-

> <preferred_name>
(Z)-9-Tricosene

> <iupac>
(9Z)-tricos-9-ene

> <MPID>
24474

> <dsstox_substance_id>
DTXSID0032653

> <Canonical_QSARr>
CCCCCCCCCCCCCC=CCCCCCCCC

> <InChI_Code_QSARr>
InChI=1S/C23H46/c1-3-5-7-9-11-13-15-17-19-21-23-22-20-18-16-14-12-10-8-6-4-2/h17,19H,3-16,18,20-23H2,1-2H3/b19-17+

> <InChI Key_QSARr>
IGOWHGRNPLFNDJ-HTXNQAPBSA-N

> <Salt_Solvent>
?

> <BP>
378.0

$$$$
105668
  -INDIGO-08031720192D

 21 22  0  0  0  0  0  0  0  0999 V2000
    1.0529    2.3650    0.0000 O   0  0  0  0  0  0  0  0  0  0  0  0
    1.3857    0.8000    0.0000 C   0  0  0  0  0  0  0  0  0  0  0  0
    0.0000   -0.0000    0.0000 C   0  0  0  0  0  0  0  0  0  0  0  0
    0.0000   -1.6000    0.0000 C   0  0  0  0  0  0  0  0  0  0  0  0
    1.3857   -2.4000    0.0000 C   0  0  0  0  0  0  0  0  0  0  0  0
    1.3857   -4.0000    0.0000 H   0  0  0  0  0  0  0  0  0  0  0  0
    2.7713   -1.6000    0.0000 C   0  0  0  0  0  0  0  0  0  0  0  0
    4.1570   -2.4000    0.0000 H   0  0  0  0  0  0  0  0  0  0  0  0
    2.7713   -0.0000    0.0000 C   0  0  0  0  0  0  0  0  0  0  0  0
    4.1570    0.8000    0.0000 C   0  0  0  0  0  0  0  0  0  0  0  0
    5.5426    1.6000    0.0000 H   0  0  0  0  0  0  0  0  0  0  0  0
    5.5426   -0.0000    0.0000 H   0  0  0  0  0  0  0  0  0  0  0  0
    4.1570    2.3999    0.0000 H   0  0  0  0  0  0  0  0  0  0  0  0
   -1.3857   -2.4000    0.0000 C   0  0  0  0  0  0  0  0  0  0  0  0
   -2.7713   -3.2001    0.0000 H   0  0  0  0  0  0  0  0  0  0  0  0
   -1.3857   -4.0000    0.0000 H   0  0  0  0  0  0  0  0  0  0  0  0
   -2.7713   -1.6000    0.0000 H   0  0  0  0  0  0  0  0  0  0  0  0
   -1.1891    1.0706    0.0000 C   0  0  0  0  0  0  0  0  0  0  0  0
   -2.7540    0.7379    0.0000 H   0  0  0  0  0  0  0  0  0  0  0  0
   -0.5383    2.5322    0.0000 C   0  0  0  0  0  0  0  0  0  0  0  0
   -1.3383    3.9179    0.0000 H   0  0  0  0  0  0  0  0  0  0  0  0
  1  2  1  0  0  0  0
  2  3  1  0  0  0  0
  3  4  2  0  0  0  0
  4  5  1  0  0  0  0
  5  6  1  0  0  0  0
  5  7  2  0  0  0  0
  7  8  1  0  0  0  0
  7  9  1  0  0  0  0
  9  2  2  0  0  0  0
  9 10  1  0  0  0  0
 10 11  1  0  0  0  0
 10 12  1  0  0  0  0
 10 13  1  0  0  0  0
  4 14  1  0  0  0  0
 14 15  1  0  0  0  0
 14 16  1  0  0  0  0
 14 17  1  0  0  0  0
  3 18  1  0  0  0  0
 18 19  1  0  0  0  0
 18 20  2  0  0  0  0
 20  1  1  0  0  0  0
 20 21  1  0  0  0  0
M  END
> <ChemID>
105668

> <source_casrn>
28715-26-6

> <CAS>
28715-26-6

> <SMILES>
Cc1ccc(C)c2ccoc12

> <NAME>
BENZOFURAN, 4,7-DIMETHYL-

> <preferred_name>
4,7-Dimethylbenzofuran

> <iupac>
4,7-dimethyl-1-benzofuran

> <MPID>
24478

> <dsstox_substance_id>
DTXSID00182875

> <Canonical_QSARr>
Cc1ccc(C)c2ccoc12

> <InChI_Code_QSARr>
InChI=1S/C10H10O/c1-7-3-4-8(2)10-9(7)5-6-11-10/h3-6H,1-2H3

> <InChI Key_QSARr>
PFXVPEGRXODMIQ-UHFFFAOYSA-N

> <Salt_Solvent>
?

> <BP>
216.0

$$$$
105675
  -INDIGO-08031720192D

 69 69  0  0  0  0  0  0  0  0999 V2000
  -11.0851    1.6000    0.0000 C   0  0  0  0  0  0  0  0  0  0  0  0
   -9.6997    2.4000    0.0000 H   0  0  0  0  0  0  0  0  0  0  0  0
  -11.0851    0.0000    0.0000 C   0  0  0  0  0  0  0  0  0  0  0  0
   -9.6997   -0.8000    0.0000 C   0  0  0  0  0  0  0  0  0  0  0  0
  -10.3119   -2.2782    0.0000 H   0  0  0  0  0  0  0  0  0  0  0  0
   -9.0874   -2.2782    0.0000 H   0  0  0  0  0  0  0  0  0  0  0  0
   -8.3137    0.0000    0.0000 C   0  0  0  0  0  0  0  0  0  0  0  0
   -7.7015    1.4782    0.0000 H   0  0  0  0  0  0  0  0  0  0  0  0
   -8.9260    1.4782    0.0000 H   0  0  0  0  0  0  0  0  0  0  0  0
   -6.9282   -0.8000    0.0000 C   0  0  0  0  0  0  0  0  0  0  0  0
   -7.5405   -2.2782    0.0000 H   0  0  0  0  0  0  0  0  0  0  0  0
   -6.3160   -2.2782    0.0000 H   0  0  0  0  0  0  0  0  0  0  0  0
   -5.5428    0.0000    0.0000 C   0  0  0  0  0  0  0  0  0  0  0  0
   -4.9300    1.4782    0.0000 H   0  0  0  0  0  0  0  0  0  0  0  0
   -6.1550    1.4782    0.0000 H   0  0  0  0  0  0  0  0  0  0  0  0
   -4.1568   -0.8000    0.0000 C   0  0  0  0  0  0  0  0  0  0  0  0
   -4.7691   -2.2782    0.0000 H   0  0  0  0  0  0  0  0  0  0  0  0
   -3.5446   -2.2782    0.0000 H   0  0  0  0  0  0  0  0  0  0  0  0
   -2.7713    0.0000    0.0000 C   0  0  0  0  0  0  0  0  0  0  0  0
   -2.1591    1.4782    0.0000 H   0  0  0  0  0  0  0  0  0  0  0  0
   -3.3836    1.4782    0.0000 H   0  0  0  0  0  0  0  0  0  0  0  0
   -1.3859   -0.8000    0.0000 C   0  0  0  0  0  0  0  0  0  0  0  0
   -1.9981   -2.2782    0.0000 H   0  0  0  0  0  0  0  0  0  0  0  0
   -0.7731   -2.2782    0.0000 H   0  0  0  0  0  0  0  0  0  0  0  0
    0.0001    0.0000    0.0000 C   0  0  0  0  0  0  0  0  0  0  0  0
    0.6123    1.4782    0.0000 H   0  0  0  0  0  0  0  0  0  0  0  0
   -0.6122    1.4782    0.0000 H   0  0  0  0  0  0  0  0  0  0  0  0
    1.3856   -0.8000    0.0000 C   0  0  0  0  0  0  0  0  0  0  0  0
    0.7733   -2.2782    0.0000 H   0  0  0  0  0  0  0  0  0  0  0  0
    1.9978   -2.2782    0.0000 H   0  0  0  0  0  0  0  0  0  0  0  0
    2.7715    0.0000    0.0000 C   0  0  0  0  0  0  0  0  0  0  0  0
    3.3838    1.4782    0.0000 H   0  0  0  0  0  0  0  0  0  0  0  0
    2.1588    1.4782    0.0000 H   0  0  0  0  0  0  0  0  0  0  0  0
    4.1570   -0.8000    0.0000 C   0  0  0  0  0  0  0  0  0  0  0  0
    3.5447   -2.2782    0.0000 H   0  0  0  0  0  0  0  0  0  0  0  0
    4.7692   -2.2782    0.0000 H   0  0  0  0  0  0  0  0  0  0  0  0
    5.5425    0.0000    0.0000 C   0  0  0  0  0  0  0  0  0  0  0  0
    6.1547    1.4782    0.0000 H   0  0  0  0  0  0  0  0  0  0  0  0
    4.9302    1.4782    0.0000 H   0  0  0  0  0  0  0  0  0  0  0  0
    6.9284   -0.8000    0.0000 C   0  0  0  0  0  0  0  0  0  0  0  0
    6.3157   -2.2782    0.0000 H   0  0  0  0  0  0  0  0  0  0  0  0
    7.5407   -2.2782    0.0000 H   0  0  0  0  0  0  0  0  0  0  0  0
    8.3139    0.0000    0.0000 C   0  0  0  0  0  0  0  0  0  0  0  0
    8.9261    1.4782    0.0000 H   0  0  0  0  0  0  0  0  0  0  0  0
    7.7016    1.4782    0.0000 H   0  0  0  0  0  0  0  0  0  0  0  0
    9.6994   -0.8000    0.0000 C   0  0  0  0  0  0  0  0  0  0  0  0
    9.0871   -2.2782    0.0000 H   0  0  0  0  0  0  0  0  0  0  0  0
   10.3116   -2.2782    0.0000 H   0  0  0  0  0  0  0  0  0  0  0  0
   11.0853    0.0000    0.0000 C   0  0  0  0  0  0  0  0  0  0  0  0
   11.6976    1.4782    0.0000 H   0  0  0  0  0  0  0  0  0  0  0  0
   10.4731    1.4782    0.0000 H   0  0  0  0  0  0  0  0  0  0  0  0
   12.4708   -0.8000    0.0000 C   0  0  0  0  0  0  0  0  0  0  0  0
   11.8585   -2.2782    0.0000 H   0  0  0  0  0  0  0  0  0  0  0  0
   13.0830   -2.2782    0.0000 H   0  0  0  0  0  0  0  0  0  0  0  0
   13.8563    0.0000    0.0000 C   0  0  0  0  0  0  0  0  0  0  0  0
   14.4685    1.4782    0.0000 H   0  0  0  0  0  0  0  0  0  0  0  0
   13.2440    1.4782    0.0000 H   0  0  0  0  0  0  0  0  0  0  0  0
   15.2422   -0.8000    0.0000 C   0  0  0  0  0  0  0  0  0  0  0  0
   16.6277   -1.6000    0.0000 H   0  0  0  0  0  0  0  0  0  0  0  0
   16.6277    0.0000    0.0000 H   0  0  0  0  0  0  0  0  0  0  0  0
   15.2422   -2.4000    0.0000 H   0  0  0  0  0  0  0  0  0  0  0  0
  -12.4706   -0.8000    0.0000 C   0  0  0  0  0  0  0  0  0  0  0  0
  -12.4706   -2.4000    0.0000 H   0  0  0  0  0  0  0  0  0  0  0  0
  -13.8566    0.0000    0.0000 C   0  0  0  0  0  0  0  0  0  0  0  0
  -15.2420   -0.8000    0.0000 H   0  0  0  0  0  0  0  0  0  0  0  0
  -13.8566    1.6000    0.0000 C   0  0  0  0  0  0  0  0  0  0  0  0
  -15.2420    2.4000    0.0000 H   0  0  0  0  0  0  0  0  0  0  0  0
  -12.4706    2.4000    0.0000 C   0  0  0  0  0  0  0  0  0  0  0  0
  -12.4706    4.0000    0.0000 H   0  0  0  0  0  0  0  0  0  0  0  0
  1  2  1  0  0  0  0
  1  3  1  0  0  0  0
  3  4  1  0  0  0  0
  4  5  1  0  0  0  0
  4  6  1  0  0  0  0
  4  7  1  0  0  0  0
  7  8  1  0  0  0  0
  7  9  1  0  0  0  0
  7 10  1  0  0  0  0
 10 11  1  0  0  0  0
 10 12  1  0  0  0  0
 10 13  1  0  0  0  0
 13 14  1  0  0  0  0
 13 15  1  0  0  0  0
 13 16  1  0  0  0  0
 16 17  1  0  0  0  0
 16 18  1  0  0  0  0
 16 19  1  0  0  0  0
 19 20  1  0  0  0  0
 19 21  1  0  0  0  0
 19 22  1  0  0  0  0
 22 23  1  0  0  0  0
 22 24  1  0  0  0  0
 22 25  1  0  0  0  0
 25 26  1  0  0  0  0
 25 27  1  0  0  0  0
 25 28  1  0  0  0  0
 28 29  1  0  0  0  0
 28 30  1  0  0  0  0
 28 31  1  0  0  0  0
 31 32  1  0  0  0  0
 31 33  1  0  0  0  0
 31 34  1  0  0  0  0
 34 35  1  0  0  0  0
 34 36  1  0  0  0  0
 34 37  1  0  0  0  0
 37 38  1  0  0  0  0
 37 39  1  0  0  0  0
 37 40  1  0  0  0  0
 40 41  1  0  0  0  0
 40 42  1  0  0  0  0
 40 43  1  0  0  0  0
 43 44  1  0  0  0  0
 43 45  1  0  0  0  0
 43 46  1  0  0  0  0
 46 47  1  0  0  0  0
 46 48  1  0  0  0  0
 46 49  1  0  0  0  0
 49 50  1  0  0  0  0
 49 51  1  0  0  0  0
 49 52  1  0  0  0  0
 52 53  1  0  0  0  0
 52 54  1  0  0  0  0
 52 55  1  0  0  0  0
 55 56  1  0  0  0  0
 55 57  1  0  0  0  0
 55 58  1  0  0  0  0
 58 59  1  0  0  0  0
 58 60  1  0  0  0  0
 58 61  1  0  0  0  0
  3 62  2  0  0  0  0
 62 63  1  0  0  0  0
 62 64  1  0  0  0  0
 64 65  1  0  0  0  0
 64 66  2  0  0  0  0
 66 67  1  0  0  0  0
 66 68  1  0  0  0  0
 68  1  2  0  0  0  0
 68 69  1  0  0  0  0
M  END
> <ChemID>
105675

> <source_casrn>
29136-19-4

> <CAS>
70356-32-0

> <SMILES>
CCCCCCCCCCCCCCCCCCCc1ccccc1

> <NAME>
Benzene, nonadecyl-

> <preferred_name>
Benzene, C14-26-alkyl derivs.

> <iupac>
nonadecylbenzene

> <MPID>
24482

> <dsstox_substance_id>
DTXSID7028986

> <Canonical_QSARr>
CCCCCCCCCCCCCCCCCCCc1ccccc1

> <InChI_Code_QSARr>
InChI=1S/C25H44/c1-2-3-4-5-6-7-8-9-10-11-12-13-14-15-16-17-19-22-25-23-20-18-21-24-25/h18,20-21,23-24H,2-17,19,22H2,1H3

> <InChI Key_QSARr>
SHWJJBRTHGGZBE-UHFFFAOYSA-N

> <Salt_Solvent>
?

> <BP>
419.0

$$$$
105680
  -INDIGO-08031720192D

 32 31  0  0  0  0  0  0  0  0999 V2000
    2.9614   -0.5221    0.0000 C   0  0  0  0  0  0  0  0  0  0  0  0
    4.0422    0.6575    0.0000 H   0  0  0  0  0  0  0  0  0  0  0  0
    2.8915    1.0764    0.0000 H   0  0  0  0  0  0  0  0  0  0  0  0
    3.9898   -1.7478    0.0000 C   0  0  0  0  0  0  0  0  0  0  0  0
    2.7641   -2.7763    0.0000 H   0  0  0  0  0  0  0  0  0  0  0  0
    5.0182   -2.9734    0.0000 C   0  0  0  0  0  0  0  0  0  0  0  0
    6.0468   -4.1992    0.0000 H   0  0  0  0  0  0  0  0  0  0  0  0
    6.5939   -2.6957    0.0000 H   0  0  0  0  0  0  0  0  0  0  0  0
    4.4710   -4.4770    0.0000 H   0  0  0  0  0  0  0  0  0  0  0  0
    5.2155   -0.7194    0.0000 O   0  0  0  0  0  0  0  0  0  0  0  0
    6.7190   -1.2667    0.0000 H   0  0  0  0  0  0  0  0  0  0  0  0
    1.3856   -0.8000    0.0000 O   0  0  0  0  0  0  0  0  0  0  0  0
    0.0000   -0.0000    0.0000 C   0  0  0  0  0  0  0  0  0  0  0  0
   -1.3856    0.8001    0.0000 H   0  0  0  0  0  0  0  0  0  0  0  0
   -0.8001   -1.3856    0.0000 C   0  0  0  0  0  0  0  0  0  0  0  0
    0.4694   -2.3596    0.0000 H   0  0  0  0  0  0  0  0  0  0  0  0
   -0.5911   -2.9720    0.0000 H   0  0  0  0  0  0  0  0  0  0  0  0
   -2.4000   -1.3856    0.0000 O   0  0  0  0  0  0  0  0  0  0  0  0
   -3.2001   -2.7712    0.0000 C   0  0  0  0  0  0  0  0  0  0  0  0
   -1.9306   -3.7452    0.0000 H   0  0  0  0  0  0  0  0  0  0  0  0
   -2.9911   -4.3576    0.0000 H   0  0  0  0  0  0  0  0  0  0  0  0
   -4.8000   -2.7712    0.0000 C   0  0  0  0  0  0  0  0  0  0  0  0
   -6.0694   -1.7972    0.0000 H   0  0  0  0  0  0  0  0  0  0  0  0
   -5.0088   -1.1850    0.0000 H   0  0  0  0  0  0  0  0  0  0  0  0
   -5.6001   -4.1570    0.0000 C   0  0  0  0  0  0  0  0  0  0  0  0
   -6.3999   -5.5426    0.0000 H   0  0  0  0  0  0  0  0  0  0  0  0
   -7.2000   -4.1570    0.0000 H   0  0  0  0  0  0  0  0  0  0  0  0
   -4.8000   -5.5426    0.0000 H   0  0  0  0  0  0  0  0  0  0  0  0
    0.5471    1.5035    0.0000 C   0  0  0  0  0  0  0  0  0  0  0  0
    1.0945    3.0070    0.0000 H   0  0  0  0  0  0  0  0  0  0  0  0
   -0.4813    2.7291    0.0000 H   0  0  0  0  0  0  0  0  0  0  0  0
    2.1229    1.7814    0.0000 H   0  0  0  0  0  0  0  0  0  0  0  0
  1  2  1  0  0  0  0
  1  3  1  0  0  0  0
  1  4  1  0  0  0  0
  4  5  1  0  0  0  0
  4  6  1  0  0  0  0
  6  7  1  0  0  0  0
  6  8  1  0  0  0  0
  6  9  1  0  0  0  0
  4 10  1  0  0  0  0
 10 11  1  0  0  0  0
  1 12  1  0  0  0  0
 12 13  1  0  0  0  0
 13 14  1  0  0  0  0
 13 15  1  0  0  0  0
 15 16  1  0  0  0  0
 15 17  1  0  0  0  0
 15 18  1  0  0  0  0
 18 19  1  0  0  0  0
 19 20  1  0  0  0  0
 19 21  1  0  0  0  0
 19 22  1  0  0  0  0
 22 23  1  0  0  0  0
 22 24  1  0  0  0  0
 22 25  1  0  0  0  0
 25 26  1  0  0  0  0
 25 27  1  0  0  0  0
 25 28  1  0  0  0  0
 13 29  1  0  0  0  0
 29 30  1  0  0  0  0
 29 31  1  0  0  0  0
 29 32  1  0  0  0  0
M  END
> <ChemID>
105680

> <source_casrn>
29911-27-1

> <CAS>
29911-27-1

> <SMILES>
CCCOCC(C)OCC(C)O

> <NAME>
2-Propanol, 1-(1-methyl-2-propoxyethoxy)-

> <preferred_name>
Butyl dipropasol solvent

> <iupac>
1-[(1-propoxypropan-2-yl)oxy]propan-2-ol

> <MPID>
24486

> <dsstox_substance_id>
DTXSID3033276

> <Canonical_QSARr>
CCCOCC(C)OCC(C)O

> <InChI_Code_QSARr>
InChI=1S/C9H20O3/c1-4-5-11-7-9(3)12-6-8(2)10/h8-10H,4-7H2,1-3H3

> <InChI Key_QSARr>
WEZPLQKRXDBPEP-UHFFFAOYSA-N

> <Salt_Solvent>
?

> <BP>
212.0

$$$$
105685
  -INDIGO-08031720192D

 26 26  0  0  0  0  0  0  0  0999 V2000
    4.7999   -0.0000    0.0000 C   0  0  0  0  0  0  0  0  0  0  0  0
    4.0000    1.3857    0.0000 C   0  0  0  0  0  0  0  0  0  0  0  0
    4.7999    2.7713    0.0000 H   0  0  0  0  0  0  0  0  0  0  0  0
    2.4000    1.3857    0.0000 C   0  0  0  0  0  0  0  0  0  0  0  0
    1.6000    2.7713    0.0000 H   0  0  0  0  0  0  0  0  0  0  0  0
    1.6000   -0.0000    0.0000 C   0  0  0  0  0  0  0  0  0  0  0  0
   -0.0001   -0.0000    0.0000 C   0  0  0  0  0  0  0  0  0  0  0  0
   -0.0001   -1.6000    0.0000 H   0  0  0  0  0  0  0  0  0  0  0  0
   -1.3857   -0.8000    0.0000 C   0  0  0  0  0  0  0  0  0  0  0  0
   -2.9720   -0.5911    0.0000 H   0  0  0  0  0  0  0  0  0  0  0  0
   -2.3596    0.4694    0.0000 H   0  0  0  0  0  0  0  0  0  0  0  0
   -1.3857   -2.4000    0.0000 C   0  0  0  0  0  0  0  0  0  0  0  0
   -1.3857   -4.0000    0.0000 H   0  0  0  0  0  0  0  0  0  0  0  0
   -2.7713   -3.2000    0.0000 H   0  0  0  0  0  0  0  0  0  0  0  0
   -0.0001   -3.2000    0.0000 H   0  0  0  0  0  0  0  0  0  0  0  0
   -0.0001    1.6000    0.0000 C   0  0  0  0  0  0  0  0  0  0  0  0
   -1.3857    2.4000    0.0000 H   0  0  0  0  0  0  0  0  0  0  0  0
   -0.0001    3.2000    0.0000 H   0  0  0  0  0  0  0  0  0  0  0  0
   -1.3857    0.8000    0.0000 H   0  0  0  0  0  0  0  0  0  0  0  0
    2.4000   -1.3857    0.0000 C   0  0  0  0  0  0  0  0  0  0  0  0
    1.6000   -2.7713    0.0000 H   0  0  0  0  0  0  0  0  0  0  0  0
    4.0000   -1.3857    0.0000 C   0  0  0  0  0  0  0  0  0  0  0  0
    4.7999   -2.7713    0.0000 H   0  0  0  0  0  0  0  0  0  0  0  0
    6.4000   -0.0000    0.0000 N   0  0  0  0  0  0  0  0  0  0  0  0
    7.2000   -1.3857    0.0000 H   0  0  0  0  0  0  0  0  0  0  0  0
    7.2000    1.3857    0.0000 H   0  0  0  0  0  0  0  0  0  0  0  0
  1  2  1  0  0  0  0
  2  3  1  0  0  0  0
  2  4  2  0  0  0  0
  4  5  1  0  0  0  0
  4  6  1  0  0  0  0
  6  7  1  0  0  0  0
  7  8  1  0  0  0  0
  7  9  1  0  0  0  0
  9 10  1  0  0  0  0
  9 11  1  0  0  0  0
  9 12  1  0  0  0  0
 12 13  1  0  0  0  0
 12 14  1  0  0  0  0
 12 15  1  0  0  0  0
  7 16  1  0  0  0  0
 16 17  1  0  0  0  0
 16 18  1  0  0  0  0
 16 19  1  0  0  0  0
  6 20  2  0  0  0  0
 20 21  1  0  0  0  0
 20 22  1  0  0  0  0
 22  1  2  0  0  0  0
 22 23  1  0  0  0  0
  1 24  1  0  0  0  0
 24 25  1  0  0  0  0
 24 26  1  0  0  0  0
M  END
> <ChemID>
105685

> <source_casrn>
30273-11-1

> <CAS>
NOCAS_865535

> <SMILES>
CCC(C)c1ccc(N)cc1

> <NAME>
Benzenamine, 4-(1-methylpropyl)-

> <preferred_name>


> <iupac>


> <MPID>
24490

> <dsstox_substance_id>
DTXSID00865535

> <Canonical_QSARr>
CCC(C)c1ccc(N)cc1

> <InChI_Code_QSARr>
InChI=1S/C10H15N/c1-3-8(2)9-4-6-10(11)7-5-9/h4-8H,3,11H2,1-2H3

> <InChI Key_QSARr>
NVVVQTNTLIAISI-UHFFFAOYSA-N

> <Salt_Solvent>
?

> <BP>
238.0

$$$$
105690
  -INDIGO-08031720192D

 18 18  0  0  0  0  0  0  0  0999 V2000
   -0.3327    1.5650    0.0000 S   0  0  0  0  0  0  0  0  0  0  0  0
   -0.0000    0.0000    0.0000 C   0  0  0  0  0  0  0  0  0  0  0  0
   -1.0707   -1.1890    0.0000 C   0  0  0  0  0  0  0  0  0  0  0  0
   -0.0315   -2.4056    0.0000 H   0  0  0  0  0  0  0  0  0  0  0  0
   -1.1962   -2.7841    0.0000 H   0  0  0  0  0  0  0  0  0  0  0  0
   -2.6357   -0.8564    0.0000 C   0  0  0  0  0  0  0  0  0  0  0  0
   -4.2007   -0.5237    0.0000 H   0  0  0  0  0  0  0  0  0  0  0  0
   -3.7063   -2.0454    0.0000 H   0  0  0  0  0  0  0  0  0  0  0  0
   -3.1301    0.6654    0.0000 H   0  0  0  0  0  0  0  0  0  0  0  0
    1.5912   -0.1672    0.0000 C   0  0  0  0  0  0  0  0  0  0  0  0
    2.3912   -1.5528    0.0000 C   0  0  0  0  0  0  0  0  0  0  0  0
    3.1912   -2.9385    0.0000 H   0  0  0  0  0  0  0  0  0  0  0  0
    3.9912   -1.5528    0.0000 H   0  0  0  0  0  0  0  0  0  0  0  0
    1.5912   -2.9385    0.0000 H   0  0  0  0  0  0  0  0  0  0  0  0
    2.2420    1.2944    0.0000 C   0  0  0  0  0  0  0  0  0  0  0  0
    3.8071    1.6271    0.0000 H   0  0  0  0  0  0  0  0  0  0  0  0
    1.0530    2.3650    0.0000 C   0  0  0  0  0  0  0  0  0  0  0  0
    1.2202    3.9563    0.0000 H   0  0  0  0  0  0  0  0  0  0  0  0
  1  2  1  0  0  0  0
  2  3  1  0  0  0  0
  3  4  1  0  0  0  0
  3  5  1  0  0  0  0
  3  6  1  0  0  0  0
  6  7  1  0  0  0  0
  6  8  1  0  0  0  0
  6  9  1  0  0  0  0
  2 10  2  0  0  0  0
 10 11  1  0  0  0  0
 11 12  1  0  0  0  0
 11 13  1  0  0  0  0
 11 14  1  0  0  0  0
 10 15  1  0  0  0  0
 15 16  1  0  0  0  0
 15 17  2  0  0  0  0
 17  1  1  0  0  0  0
 17 18  1  0  0  0  0
M  END
> <ChemID>
105690

> <source_casrn>
31805-48-8

> <CAS>
31805-48-8

> <SMILES>
Cc1cc[s]c1CC

> <NAME>
2-Ethyl-3-methyl-thiophene

> <preferred_name>
2-Ethyl-3-methylthiophene

> <iupac>
2-Ethyl-3-methylthiophene

> <MPID>
24494

> <dsstox_substance_id>
DTXSID60185680

> <Canonical_QSARr>
Cc1cc[s]c1CC

> <InChI_Code_QSARr>
InChI=1S/C7H10S/c1-3-7-6(2)4-5-8-7/h4-5H,3H2,1-2H3

> <InChI Key_QSARr>
VVSCPYCHXFEKLF-UHFFFAOYSA-N

> <Salt_Solvent>
?

> <BP>
161.0

$$$$
105694
  -INDIGO-08031720192D

 30 30  0  0  0  0  0  0  0  0999 V2000
    1.0284   -1.7814    0.0000 O   0  0  0  0  0  0  0  0  0  0  0  0
    2.0569   -3.0070    0.0000 H   0  0  0  0  0  0  0  0  0  0  0  0
    1.5756   -0.2778    0.0000 C   0  0  0  0  0  0  0  0  0  0  0  0
    0.0000    0.0000    0.0000 C   0  0  0  0  0  0  0  0  0  0  0  0
    0.5473    1.5035    0.0000 H   0  0  0  0  0  0  0  0  0  0  0  0
   -1.3857    0.8000    0.0000 C   0  0  0  0  0  0  0  0  0  0  0  0
   -0.3572    2.0257    0.0000 H   0  0  0  0  0  0  0  0  0  0  0  0
   -2.4141    2.0257    0.0000 H   0  0  0  0  0  0  0  0  0  0  0  0
   -2.7713    0.0000    0.0000 C   0  0  0  0  0  0  0  0  0  0  0  0
   -3.3185    1.5035    0.0000 H   0  0  0  0  0  0  0  0  0  0  0  0
   -4.3470   -0.2778    0.0000 O   0  0  0  0  0  0  0  0  0  0  0  0
   -5.3754    0.9479    0.0000 H   0  0  0  0  0  0  0  0  0  0  0  0
   -2.7713   -1.6000    0.0000 C   0  0  0  0  0  0  0  0  0  0  0  0
   -4.1570   -2.4000    0.0000 C   0  0  0  0  0  0  0  0  0  0  0  0
   -5.5426   -3.2000    0.0000 H   0  0  0  0  0  0  0  0  0  0  0  0
   -4.1570   -4.0000    0.0000 H   0  0  0  0  0  0  0  0  0  0  0  0
   -5.5426   -1.6000    0.0000 H   0  0  0  0  0  0  0  0  0  0  0  0
   -1.3857   -2.4000    0.0000 C   0  0  0  0  0  0  0  0  0  0  0  0
   -1.3857   -4.0000    0.0000 H   0  0  0  0  0  0  0  0  0  0  0  0
    0.0000   -1.6000    0.0000 C   0  0  0  0  0  0  0  0  0  0  0  0
    0.5473   -3.1035    0.0000 H   0  0  0  0  0  0  0  0  0  0  0  0
    1.5756   -1.3222    0.0000 H   0  0  0  0  0  0  0  0  0  0  0  0
    3.0793   -0.8251    0.0000 C   0  0  0  0  0  0  0  0  0  0  0  0
    4.5827   -1.3723    0.0000 H   0  0  0  0  0  0  0  0  0  0  0  0
    4.3049    0.2034    0.0000 H   0  0  0  0  0  0  0  0  0  0  0  0
    3.3570   -2.4007    0.0000 H   0  0  0  0  0  0  0  0  0  0  0  0
    2.1229    1.2256    0.0000 C   0  0  0  0  0  0  0  0  0  0  0  0
    2.6701    2.7292    0.0000 H   0  0  0  0  0  0  0  0  0  0  0  0
    1.0945    2.4513    0.0000 H   0  0  0  0  0  0  0  0  0  0  0  0
    3.6987    1.5035    0.0000 H   0  0  0  0  0  0  0  0  0  0  0  0
  1  2  1  0  0  0  0
  1  3  1  0  0  0  0
  3  4  1  0  0  0  0
  4  5  1  0  0  0  0
  4  6  1  0  0  0  0
  6  7  1  0  0  0  0
  6  8  1  0  0  0  0
  6  9  1  0  0  0  0
  9 10  1  0  0  0  0
  9 11  1  0  0  0  0
 11 12  1  0  0  0  0
  9 13  1  0  0  0  0
 13 14  1  0  0  0  0
 14 15  1  0  0  0  0
 14 16  1  0  0  0  0
 14 17  1  0  0  0  0
 13 18  2  0  0  0  0
 18 19  1  0  0  0  0
 18 20  1  0  0  0  0
 20  4  1  0  0  0  0
 20 21  1  0  0  0  0
 20 22  1  0  0  0  0
  3 23  1  0  0  0  0
 23 24  1  0  0  0  0
 23 25  1  0  0  0  0
 23 26  1  0  0  0  0
  3 27  1  0  0  0  0
 27 28  1  0  0  0  0
 27 29  1  0  0  0  0
 27 30  1  0  0  0  0
M  END
> <ChemID>
105694

> <source_casrn>
32226-54-3

> <CAS>
32226-54-3

> <SMILES>
CC1=CCC(C[C@@H]1O)C(C)(C)O

> <NAME>
trans-p-Menth-6-ene-2,8-diol

> <preferred_name>
Sobrepin

> <iupac>
(1S)-5-(2-hydroxypropan-2-yl)-2-methylcyclohex-2-en-1-ol

> <MPID>
24498

> <dsstox_substance_id>
DTXSID60185983

> <Canonical_QSARr>
CC1=CCC(CC1O)C(C)(C)O

> <InChI_Code_QSARr>
InChI=1S/C10H18O2/c1-7-4-5-8(6-9(7)11)10(2,3)12/h4,8-9,11-12H,5-6H2,1-3H3

> <InChI Key_QSARr>
OMDMTHRBGUBUCO-UHFFFAOYSA-N

> <Salt_Solvent>
?

> <BP>
270.5

$$$$
105699
  -INDIGO-08031720192D

 12 11  0  0  0  0  0  0  0  0999 V2000
    1.3856    0.8000    0.0000 C   0  0  0  0  0  0  0  0  0  0  0  0
    2.7713    1.6000    0.0000 H   0  0  0  0  0  0  0  0  0  0  0  0
    0.0000    0.0000    0.0000 C   0  0  0  0  0  0  0  0  0  0  0  0
    0.6123   -1.4782    0.0000 H   0  0  0  0  0  0  0  0  0  0  0  0
   -0.6123   -1.4782    0.0000 H   0  0  0  0  0  0  0  0  0  0  0  0
   -1.3856    0.8000    0.0000 O   0  0  0  0  0  0  0  0  0  0  0  0
   -2.7713    0.0000    0.0000 C   0  0  0  0  0  0  0  0  0  0  0  0
   -4.1569   -0.8000    0.0000 H   0  0  0  0  0  0  0  0  0  0  0  0
   -4.1569    0.8000    0.0000 F   0  0  0  0  0  0  0  0  0  0  0  0
   -2.7713   -1.6000    0.0000 F   0  0  0  0  0  0  0  0  0  0  0  0
    2.7713    0.0000    0.0000 F   0  0  0  0  0  0  0  0  0  0  0  0
    1.3856    2.4000    0.0000 F   0  0  0  0  0  0  0  0  0  0  0  0
  1  2  1  0  0  0  0
  1  3  1  0  0  0  0
  3  4  1  0  0  0  0
  3  5  1  0  0  0  0
  3  6  1  0  0  0  0
  6  7  1  0  0  0  0
  7  8  1  0  0  0  0
  7  9  1  0  0  0  0
  7 10  1  0  0  0  0
  1 11  1  0  0  0  0
  1 12  1  0  0  0  0
M  END
> <ChemID>
105699

> <source_casrn>
32778-16-8

> <CAS>
NOCAS_871371

> <SMILES>
FC(F)OCC(F)F

> <NAME>
2-(DIFLUOROMETHOXY)-1,1-DIFLUOROETHANE

> <preferred_name>


> <iupac>


> <MPID>
24502

> <dsstox_substance_id>
DTXSID80871371

> <Canonical_QSARr>
FC(F)OCC(F)F

> <InChI_Code_QSARr>
InChI=1S/C3H4F4O/c4-2(5)1-8-3(6)7/h2-3H,1H2

> <InChI Key_QSARr>
RPVUQXHGCXIWHO-UHFFFAOYSA-N

> <Salt_Solvent>
?

> <BP>
55.3

$$$$
105703
  -INDIGO-08031720192D

 15 15  0  0  0  0  0  0  0  0999 V2000
   -2.4001    1.3856    0.0000 C   0  0  0  0  0  0  0  0  0  0  0  0
   -0.7999    1.3856    0.0000 C   0  0  0  0  0  0  0  0  0  0  0  0
    0.0000    2.7713    0.0000 H   0  0  0  0  0  0  0  0  0  0  0  0
    0.0000    0.0000    0.0000 C   0  0  0  0  0  0  0  0  0  0  0  0
    1.6000    0.0000    0.0000 C   0  0  0  0  0  0  0  0  0  0  0  0
    3.2000    0.0000    0.0000 H   0  0  0  0  0  0  0  0  0  0  0  0
    2.4001   -1.3856    0.0000 Cl  0  0  0  0  0  0  0  0  0  0  0  0
    2.4001    1.3856    0.0000 Cl  0  0  0  0  0  0  0  0  0  0  0  0
   -0.7999   -1.3856    0.0000 C   0  0  0  0  0  0  0  0  0  0  0  0
    0.0000   -2.7713    0.0000 Cl  0  0  0  0  0  0  0  0  0  0  0  0
   -2.4001   -1.3856    0.0000 C   0  0  0  0  0  0  0  0  0  0  0  0
   -3.2000   -2.7713    0.0000 H   0  0  0  0  0  0  0  0  0  0  0  0
   -3.2000   -0.0000    0.0000 C   0  0  0  0  0  0  0  0  0  0  0  0
   -4.8000    0.0000    0.0000 Cl  0  0  0  0  0  0  0  0  0  0  0  0
   -3.2000    2.7713    0.0000 Cl  0  0  0  0  0  0  0  0  0  0  0  0
  1  2  1  0  0  0  0
  2  3  1  0  0  0  0
  2  4  2  0  0  0  0
  4  5  1  0  0  0  0
  5  6  1  0  0  0  0
  5  7  1  0  0  0  0
  5  8  1  0  0  0  0
  4  9  1  0  0  0  0
  9 10  1  0  0  0  0
  9 11  2  0  0  0  0
 11 12  1  0  0  0  0
 11 13  1  0  0  0  0
 13  1  2  0  0  0  0
 13 14  1  0  0  0  0
  1 15  1  0  0  0  0
M  END
> <ChemID>
105703

> <source_casrn>
33429-70-8

> <CAS>
NOCAS_871375

> <SMILES>
ClC(Cl)c1cc(Cl)c(Cl)cc1Cl

> <NAME>
1,2,4-Trichloro-5-dichloromethyl-benzene

> <preferred_name>


> <iupac>


> <MPID>
24506

> <dsstox_substance_id>
DTXSID20871375

> <Canonical_QSARr>
ClC(Cl)c1cc(Cl)c(Cl)cc1Cl

> <InChI_Code_QSARr>
InChI=1S/C7H3Cl5/c8-4-2-6(10)5(9)1-3(4)7(11)12/h1-2,7H

> <InChI Key_QSARr>
IPXYEDOPGOVJCG-UHFFFAOYSA-N

> <Salt_Solvent>
?

> <BP>
280.5

$$$$
105708
  -INDIGO-08031720192D

 26 26  0  0  0  0  0  0  0  0999 V2000
    4.7757    0.2778    0.0000 N   0  0  0  0  0  0  0  0  0  0  0  0
    3.9757    1.6635    0.0000 C   0  0  0  0  0  0  0  0  0  0  0  0
    4.7757    3.0492    0.0000 H   0  0  0  0  0  0  0  0  0  0  0  0
    2.3757    1.6635    0.0000 C   0  0  0  0  0  0  0  0  0  0  0  0
    1.5757    3.0492    0.0000 H   0  0  0  0  0  0  0  0  0  0  0  0
    1.5757    0.2778    0.0000 C   0  0  0  0  0  0  0  0  0  0  0  0
    0.0000    0.0000    0.0000 C   0  0  0  0  0  0  0  0  0  0  0  0
    0.2778   -1.5757    0.0000 H   0  0  0  0  0  0  0  0  0  0  0  0
   -1.5757   -0.2778    0.0000 C   0  0  0  0  0  0  0  0  0  0  0  0
   -2.9949    0.4609    0.0000 H   0  0  0  0  0  0  0  0  0  0  0  0
   -2.0568    1.2481    0.0000 H   0  0  0  0  0  0  0  0  0  0  0  0
   -2.1230   -1.7813    0.0000 C   0  0  0  0  0  0  0  0  0  0  0  0
   -2.6702   -3.2849    0.0000 H   0  0  0  0  0  0  0  0  0  0  0  0
   -3.6986   -2.0592    0.0000 H   0  0  0  0  0  0  0  0  0  0  0  0
   -1.0944   -3.0070    0.0000 H   0  0  0  0  0  0  0  0  0  0  0  0
   -0.2779    1.5757    0.0000 C   0  0  0  0  0  0  0  0  0  0  0  0
    0.4610    2.9949    0.0000 H   0  0  0  0  0  0  0  0  0  0  0  0
    1.2481    2.0568    0.0000 H   0  0  0  0  0  0  0  0  0  0  0  0
   -1.6635    2.3757    0.0000 C   0  0  0  0  0  0  0  0  0  0  0  0
   -3.0491    3.1757    0.0000 H   0  0  0  0  0  0  0  0  0  0  0  0
   -1.6635    3.9757    0.0000 H   0  0  0  0  0  0  0  0  0  0  0  0
   -3.0491    1.5757    0.0000 H   0  0  0  0  0  0  0  0  0  0  0  0
    2.3757   -1.1079    0.0000 C   0  0  0  0  0  0  0  0  0  0  0  0
    1.5757   -2.4935    0.0000 H   0  0  0  0  0  0  0  0  0  0  0  0
    3.9757   -1.1079    0.0000 C   0  0  0  0  0  0  0  0  0  0  0  0
    4.7757   -2.4935    0.0000 H   0  0  0  0  0  0  0  0  0  0  0  0
  1  2  1  0  0  0  0
  2  3  1  0  0  0  0
  2  4  2  0  0  0  0
  4  5  1  0  0  0  0
  4  6  1  0  0  0  0
  6  7  1  0  0  0  0
  7  8  1  0  0  0  0
  7  9  1  0  0  0  0
  9 10  1  0  0  0  0
  9 11  1  0  0  0  0
  9 12  1  0  0  0  0
 12 13  1  0  0  0  0
 12 14  1  0  0  0  0
 12 15  1  0  0  0  0
  7 16  1  0  0  0  0
 16 17  1  0  0  0  0
 16 18  1  0  0  0  0
 16 19  1  0  0  0  0
 19 20  1  0  0  0  0
 19 21  1  0  0  0  0
 19 22  1  0  0  0  0
  6 23  2  0  0  0  0
 23 24  1  0  0  0  0
 23 25  1  0  0  0  0
 25  1  2  0  0  0  0
 25 26  1  0  0  0  0
M  END
> <ChemID>
105708

> <source_casrn>
35182-51-5

> <CAS>
35182-51-5

> <SMILES>
CCC(CC)c1cc[n]cc1

> <NAME>
Pyridine, 4-(1-ethylpropyl)-

> <preferred_name>
4-(1-Ethylpropyl)pyridine

> <iupac>
4-pentan-3-ylpyridine

> <MPID>
24510

> <dsstox_substance_id>
DTXSID5067895

> <Canonical_QSARr>
CCC(CC)c1cc[n]cc1

> <InChI_Code_QSARr>
InChI=1S/C10H15N/c1-3-9(4-2)10-5-7-11-8-6-10/h5-9H,3-4H2,1-2H3

> <InChI Key_QSARr>
YHXYCIZBTSECRP-UHFFFAOYSA-N

> <Salt_Solvent>
?

> <BP>
217.0

$$$$
105713
  -INDIGO-08031720192D

 27 27  0  0  0  0  0  0  0  0999 V2000
   -2.7713    0.0001    0.0000 C   0  0  0  0  0  0  0  0  0  0  0  0
   -2.7713   -1.6001    0.0000 C   0  0  0  0  0  0  0  0  0  0  0  0
   -1.3856   -2.4000    0.0000 H   0  0  0  0  0  0  0  0  0  0  0  0
   -4.1569   -2.4000    0.0000 C   0  0  0  0  0  0  0  0  0  0  0  0
   -4.1569   -4.0000    0.0000 H   0  0  0  0  0  0  0  0  0  0  0  0
   -5.5426   -1.5999    0.0000 C   0  0  0  0  0  0  0  0  0  0  0  0
   -6.9282   -2.4000    0.0000 H   0  0  0  0  0  0  0  0  0  0  0  0
   -5.5426    0.0001    0.0000 C   0  0  0  0  0  0  0  0  0  0  0  0
   -6.9282    0.8000    0.0000 H   0  0  0  0  0  0  0  0  0  0  0  0
   -4.1569    0.8000    0.0000 C   0  0  0  0  0  0  0  0  0  0  0  0
   -4.1569    2.4000    0.0000 C   0  0  0  0  0  0  0  0  0  0  0  0
   -4.1569    4.0000    0.0000 H   0  0  0  0  0  0  0  0  0  0  0  0
   -5.5426    3.2001    0.0000 H   0  0  0  0  0  0  0  0  0  0  0  0
   -2.7713    3.1999    0.0000 H   0  0  0  0  0  0  0  0  0  0  0  0
   -1.3856    0.8000    0.0000 C   0  0  0  0  0  0  0  0  0  0  0  0
   -0.7733    2.2782    0.0000 H   0  0  0  0  0  0  0  0  0  0  0  0
   -1.9979    2.2782    0.0000 H   0  0  0  0  0  0  0  0  0  0  0  0
    0.0000    0.0001    0.0000 C   0  0  0  0  0  0  0  0  0  0  0  0
   -1.0284   -1.2257    0.0000 H   0  0  0  0  0  0  0  0  0  0  0  0
    1.2256   -1.0285    0.0000 C   0  0  0  0  0  0  0  0  0  0  0  0
    2.4514   -2.0570    0.0000 H   0  0  0  0  0  0  0  0  0  0  0  0
    2.7292   -0.4813    0.0000 H   0  0  0  0  0  0  0  0  0  0  0  0
    0.9479   -2.6041    0.0000 H   0  0  0  0  0  0  0  0  0  0  0  0
    1.0285    1.2257    0.0000 C   0  0  0  0  0  0  0  0  0  0  0  0
    2.0569    2.4514    0.0000 H   0  0  0  0  0  0  0  0  0  0  0  0
    0.4812    2.7292    0.0000 H   0  0  0  0  0  0  0  0  0  0  0  0
    2.6042    0.9478    0.0000 H   0  0  0  0  0  0  0  0  0  0  0  0
  1  2  1  0  0  0  0
  2  3  1  0  0  0  0
  2  4  2  0  0  0  0
  4  5  1  0  0  0  0
  4  6  1  0  0  0  0
  6  7  1  0  0  0  0
  6  8  2  0  0  0  0
  8  9  1  0  0  0  0
  8 10  1  0  0  0  0
 10  1  2  0  0  0  0
 10 11  1  0  0  0  0
 11 12  1  0  0  0  0
 11 13  1  0  0  0  0
 11 14  1  0  0  0  0
  1 15  1  0  0  0  0
 15 16  1  0  0  0  0
 15 17  1  0  0  0  0
 15 18  1  0  0  0  0
 18 19  1  0  0  0  0
 18 20  1  0  0  0  0
 20 21  1  0  0  0  0
 20 22  1  0  0  0  0
 20 23  1  0  0  0  0
 18 24  1  0  0  0  0
 24 25  1  0  0  0  0
 24 26  1  0  0  0  0
 24 27  1  0  0  0  0
M  END
> <ChemID>
105713

> <source_casrn>
36301-29-8

> <CAS>
NOCAS_871378

> <SMILES>
Cc1ccccc1CC(C)C

> <NAME>
1-Isobutyl-2-methyl-benzene

> <preferred_name>


> <iupac>


> <MPID>
24514

> <dsstox_substance_id>
DTXSID00871378

> <Canonical_QSARr>
Cc1ccccc1CC(C)C

> <InChI_Code_QSARr>
InChI=1S/C11H16/c1-9(2)8-11-7-5-4-6-10(11)3/h4-7,9H,8H2,1-3H3

> <InChI Key_QSARr>
XNMPJDZAHSMAMN-UHFFFAOYSA-N

> <Salt_Solvent>
?

> <BP>
196.0

$$$$
105718
  -INDIGO-08031720192D

 27 27  0  0  0  0  0  0  0  0999 V2000
   -6.8066   -1.5198    0.0000 C   0  0  0  0  0  0  0  0  0  0  0  0
   -5.5121   -0.5793    0.0000 C   0  0  0  0  0  0  0  0  0  0  0  0
   -6.2757    0.8267    0.0000 H   0  0  0  0  0  0  0  0  0  0  0  0
   -5.0577    0.9548    0.0000 H   0  0  0  0  0  0  0  0  0  0  0  0
   -4.0505   -1.2301    0.0000 O   0  0  0  0  0  0  0  0  0  0  0  0
   -2.7561   -0.2897    0.0000 C   0  0  0  0  0  0  0  0  0  0  0  0
   -1.2945   -0.9405    0.0000 C   0  0  0  0  0  0  0  0  0  0  0  0
   -0.5309   -2.3465    0.0000 H   0  0  0  0  0  0  0  0  0  0  0  0
   -1.7489   -2.4746    0.0000 H   0  0  0  0  0  0  0  0  0  0  0  0
   -0.0001    0.0000    0.0000 C   0  0  0  0  0  0  0  0  0  0  0  0
   -0.7634    1.4061    0.0000 H   0  0  0  0  0  0  0  0  0  0  0  0
    0.4544    1.5341    0.0000 H   0  0  0  0  0  0  0  0  0  0  0  0
    1.4617   -0.6508    0.0000 C   0  0  0  0  0  0  0  0  0  0  0  0
    2.2251   -2.0569    0.0000 H   0  0  0  0  0  0  0  0  0  0  0  0
    1.0073   -2.1849    0.0000 H   0  0  0  0  0  0  0  0  0  0  0  0
    2.7562    0.2896    0.0000 C   0  0  0  0  0  0  0  0  0  0  0  0
    4.0504    1.2301    0.0000 H   0  0  0  0  0  0  0  0  0  0  0  0
    4.2178   -0.3611    0.0000 H   0  0  0  0  0  0  0  0  0  0  0  0
    2.5888    1.8809    0.0000 H   0  0  0  0  0  0  0  0  0  0  0  0
   -2.9234    1.3016    0.0000 O   0  0  0  0  0  0  0  0  0  0  0  0
   -8.3282   -1.0254    0.0000 C   0  0  0  0  0  0  0  0  0  0  0  0
   -8.8227    0.4963    0.0000 H   0  0  0  0  0  0  0  0  0  0  0  0
   -9.2688   -2.3198    0.0000 C   0  0  0  0  0  0  0  0  0  0  0  0
  -10.8688   -2.3198    0.0000 H   0  0  0  0  0  0  0  0  0  0  0  0
   -8.3282   -3.6142    0.0000 C   0  0  0  0  0  0  0  0  0  0  0  0
   -8.8227   -5.1359    0.0000 H   0  0  0  0  0  0  0  0  0  0  0  0
   -6.8066   -3.1198    0.0000 O   0  0  0  0  0  0  0  0  0  0  0  0
  1  2  1  0  0  0  0
  2  3  1  0  0  0  0
  2  4  1  0  0  0  0
  2  5  1  0  0  0  0
  5  6  1  0  0  0  0
  6  7  1  0  0  0  0
  7  8  1  0  0  0  0
  7  9  1  0  0  0  0
  7 10  1  0  0  0  0
 10 11  1  0  0  0  0
 10 12  1  0  0  0  0
 10 13  1  0  0  0  0
 13 14  1  0  0  0  0
 13 15  1  0  0  0  0
 13 16  1  0  0  0  0
 16 17  1  0  0  0  0
 16 18  1  0  0  0  0
 16 19  1  0  0  0  0
  6 20  2  0  0  0  0
  1 21  2  0  0  0  0
 21 22  1  0  0  0  0
 21 23  1  0  0  0  0
 23 24  1  0  0  0  0
 23 25  2  0  0  0  0
 25 26  1  0  0  0  0
 25 27  1  0  0  0  0
 27  1  1  0  0  0  0
M  END
> <ChemID>
105718

> <source_casrn>
36701-01-6

> <CAS>
36701-01-6

> <SMILES>
CCCCC(=O)OCc1ccco1

> <NAME>
Pentanoic acid, 2-furanylmethyl ester

> <preferred_name>
Pentanoic acid, 2-furanylmethyl ester

> <iupac>
furan-2-ylmethyl pentanoate

> <MPID>
24518

> <dsstox_substance_id>
DTXSID8067993

> <Canonical_QSARr>
CCCCC(=O)OCc1ccco1

> <InChI_Code_QSARr>
InChI=1S/C10H14O3/c1-2-3-6-10(11)13-8-9-5-4-7-12-9/h4-5,7H,2-3,6,8H2,1H3

> <InChI Key_QSARr>
HRYAVTBTUKVHBU-UHFFFAOYSA-N

> <Salt_Solvent>
?

> <BP>
228.0

$$$$
105722
  -INDIGO-08031720192D

 36 35  0  0  0  0  0  0  0  0999 V2000
    5.5426   -0.0000    0.0000 C   0  0  0  0  0  0  0  0  0  0  0  0
    6.9282    0.8000    0.0000 H   0  0  0  0  0  0  0  0  0  0  0  0
    6.9282   -0.8000    0.0000 H   0  0  0  0  0  0  0  0  0  0  0  0
    5.5426    1.6000    0.0000 H   0  0  0  0  0  0  0  0  0  0  0  0
    4.1570   -0.8000    0.0000 C   0  0  0  0  0  0  0  0  0  0  0  0
    3.5446   -2.2782    0.0000 H   0  0  0  0  0  0  0  0  0  0  0  0
    4.7693   -2.2782    0.0000 H   0  0  0  0  0  0  0  0  0  0  0  0
    2.7712   -0.0000    0.0000 C   0  0  0  0  0  0  0  0  0  0  0  0
    3.3834    1.4782    0.0000 H   0  0  0  0  0  0  0  0  0  0  0  0
    2.1590    1.4782    0.0000 H   0  0  0  0  0  0  0  0  0  0  0  0
    1.3856   -0.8000    0.0000 C   0  0  0  0  0  0  0  0  0  0  0  0
    0.7734   -2.2782    0.0000 H   0  0  0  0  0  0  0  0  0  0  0  0
    1.9979   -2.2782    0.0000 H   0  0  0  0  0  0  0  0  0  0  0  0
    0.0001   -0.0000    0.0000 C   0  0  0  0  0  0  0  0  0  0  0  0
   -0.7999   -1.3856    0.0000 H   0  0  0  0  0  0  0  0  0  0  0  0
   -1.3855    0.8000    0.0000 C   0  0  0  0  0  0  0  0  0  0  0  0
   -0.7733    2.2782    0.0000 H   0  0  0  0  0  0  0  0  0  0  0  0
   -1.9980    2.2782    0.0000 H   0  0  0  0  0  0  0  0  0  0  0  0
   -2.7713   -0.0000    0.0000 C   0  0  0  0  0  0  0  0  0  0  0  0
   -3.3836   -1.4782    0.0000 H   0  0  0  0  0  0  0  0  0  0  0  0
   -2.1591   -1.4782    0.0000 H   0  0  0  0  0  0  0  0  0  0  0  0
   -4.1569    0.8000    0.0000 C   0  0  0  0  0  0  0  0  0  0  0  0
   -3.5447    2.2782    0.0000 H   0  0  0  0  0  0  0  0  0  0  0  0
   -4.7692    2.2782    0.0000 H   0  0  0  0  0  0  0  0  0  0  0  0
   -5.5425   -0.0000    0.0000 C   0  0  0  0  0  0  0  0  0  0  0  0
   -6.1547   -1.4782    0.0000 H   0  0  0  0  0  0  0  0  0  0  0  0
   -4.9303   -1.4782    0.0000 H   0  0  0  0  0  0  0  0  0  0  0  0
   -6.9281    0.8000    0.0000 C   0  0  0  0  0  0  0  0  0  0  0  0
   -6.3158    2.2782    0.0000 H   0  0  0  0  0  0  0  0  0  0  0  0
   -7.5406    2.2782    0.0000 H   0  0  0  0  0  0  0  0  0  0  0  0
   -8.3139   -0.0000    0.0000 C   0  0  0  0  0  0  0  0  0  0  0  0
   -9.6995   -0.8000    0.0000 H   0  0  0  0  0  0  0  0  0  0  0  0
   -9.6995    0.8000    0.0000 H   0  0  0  0  0  0  0  0  0  0  0  0
   -8.3139   -1.6000    0.0000 H   0  0  0  0  0  0  0  0  0  0  0  0
    0.8000    1.3857    0.0000 O   0  0  0  0  0  0  0  0  0  0  0  0
    0.2528    2.8891    0.0000 H   0  0  0  0  0  0  0  0  0  0  0  0
  1  2  1  0  0  0  0
  1  3  1  0  0  0  0
  1  4  1  0  0  0  0
  1  5  1  0  0  0  0
  5  6  1  0  0  0  0
  5  7  1  0  0  0  0
  5  8  1  0  0  0  0
  8  9  1  0  0  0  0
  8 10  1  0  0  0  0
  8 11  1  0  0  0  0
 11 12  1  0  0  0  0
 11 13  1  0  0  0  0
 11 14  1  0  0  0  0
 14 15  1  0  0  0  0
 14 16  1  0  0  0  0
 16 17  1  0  0  0  0
 16 18  1  0  0  0  0
 16 19  1  0  0  0  0
 19 20  1  0  0  0  0
 19 21  1  0  0  0  0
 19 22  1  0  0  0  0
 22 23  1  0  0  0  0
 22 24  1  0  0  0  0
 22 25  1  0  0  0  0
 25 26  1  0  0  0  0
 25 27  1  0  0  0  0
 25 28  1  0  0  0  0
 28 29  1  0  0  0  0
 28 30  1  0  0  0  0
 28 31  1  0  0  0  0
 31 32  1  0  0  0  0
 31 33  1  0  0  0  0
 31 34  1  0  0  0  0
 14 35  1  0  0  0  0
 35 36  1  0  0  0  0
M  END
> <ChemID>
105722

> <source_casrn>
37493-70-2

> <CAS>
NOCAS_871383

> <SMILES>
CCCCC(O)CCCCCC

> <NAME>
Undecan-5-ol

> <preferred_name>


> <iupac>


> <MPID>
24522

> <dsstox_substance_id>
DTXSID50871383

> <Canonical_QSARr>
CCCCC(O)CCCCCC

> <InChI_Code_QSARr>
InChI=1S/C11H24O/c1-3-5-7-8-10-11(12)9-6-4-2/h11-12H,3-10H2,1-2H3

> <InChI Key_QSARr>
PCFOZHPCKQPZCN-UHFFFAOYSA-N

> <Salt_Solvent>
?

> <BP>
229.0

$$$$
105726
  -INDIGO-08031720192D

 24 23  0  0  0  0  0  0  0  0999 V2000
    5.5654    1.4700    0.0000 C   0  0  0  0  0  0  0  0  0  0  0  0
    7.1412    1.1922    0.0000 H   0  0  0  0  0  0  0  0  0  0  0  0
    6.5939    2.6956    0.0000 H   0  0  0  0  0  0  0  0  0  0  0  0
    6.1126   -0.0335    0.0000 H   0  0  0  0  0  0  0  0  0  0  0  0
    3.9898    1.7479    0.0000 C   0  0  0  0  0  0  0  0  0  0  0  0
    3.4426    3.2513    0.0000 H   0  0  0  0  0  0  0  0  0  0  0  0
    2.9613    0.5222    0.0000 C   0  0  0  0  0  0  0  0  0  0  0  0
    3.5085   -0.9814    0.0000 H   0  0  0  0  0  0  0  0  0  0  0  0
    1.3856    0.8000    0.0000 C   0  0  0  0  0  0  0  0  0  0  0  0
    1.9979    2.2782    0.0000 H   0  0  0  0  0  0  0  0  0  0  0  0
    0.7734    2.2782    0.0000 H   0  0  0  0  0  0  0  0  0  0  0  0
    0.0000    0.0000    0.0000 C   0  0  0  0  0  0  0  0  0  0  0  0
   -1.3856   -0.8000    0.0000 C   0  0  0  0  0  0  0  0  0  0  0  0
   -2.7713   -1.6000    0.0000 H   0  0  0  0  0  0  0  0  0  0  0  0
   -1.3856   -2.4000    0.0000 H   0  0  0  0  0  0  0  0  0  0  0  0
   -2.7713    0.0000    0.0000 H   0  0  0  0  0  0  0  0  0  0  0  0
   -0.8000    1.3856    0.0000 C   0  0  0  0  0  0  0  0  0  0  0  0
   -1.6000    2.7713    0.0000 H   0  0  0  0  0  0  0  0  0  0  0  0
   -2.4000    1.3856    0.0000 H   0  0  0  0  0  0  0  0  0  0  0  0
   -0.2527    2.8892    0.0000 H   0  0  0  0  0  0  0  0  0  0  0  0
    0.8000   -1.3856    0.0000 C   0  0  0  0  0  0  0  0  0  0  0  0
    1.6000   -2.7713    0.0000 H   0  0  0  0  0  0  0  0  0  0  0  0
    2.4000   -1.3856    0.0000 H   0  0  0  0  0  0  0  0  0  0  0  0
    0.0000   -2.7713    0.0000 H   0  0  0  0  0  0  0  0  0  0  0  0
  1  2  1  0  0  0  0
  1  3  1  0  0  0  0
  1  4  1  0  0  0  0
  1  5  1  0  0  0  0
  5  6  1  0  0  0  0
  5  7  2  0  0  0  0
  7  8  1  0  0  0  0
  7  9  1  0  0  0  0
  9 10  1  0  0  0  0
  9 11  1  0  0  0  0
  9 12  1  0  0  0  0
 12 13  1  0  0  0  0
 13 14  1  0  0  0  0
 13 15  1  0  0  0  0
 13 16  1  0  0  0  0
 12 17  1  0  0  0  0
 17 18  1  0  0  0  0
 17 19  1  0  0  0  0
 17 20  1  0  0  0  0
 12 21  1  0  0  0  0
 21 22  1  0  0  0  0
 21 23  1  0  0  0  0
 21 24  1  0  0  0  0
M  END
> <ChemID>
105726

> <source_casrn>
39761-61-0

> <CAS>
39761-61-0

> <SMILES>
C/C=C\CC(C)(C)C

> <NAME>
2-HEXENE, 5,5-DIMETHYL-, (Z)-

> <preferred_name>


> <iupac>


> <MPID>
24526

> <dsstox_substance_id>
DTXSID20879255

> <Canonical_QSARr>
CC=CCC(C)(C)C

> <InChI_Code_QSARr>
InChI=1S/C8H16/c1-5-6-7-8(2,3)4/h5-6H,7H2,1-4H3/b6-5+

> <InChI Key_QSARr>
NWZJLSKAFZXSQH-AATRIKPKSA-N

> <Salt_Solvent>
?

> <BP>
106.9

$$$$
105730
  -INDIGO-08031720192D

 20 20  0  0  0  0  0  0  0  0999 V2000
    0.6508    1.4616    0.0000 N   0  0  0  0  0  0  0  0  0  0  0  0
    2.2420    1.6289    0.0000 H   0  0  0  0  0  0  0  0  0  0  0  0
    0.2097    2.9997    0.0000 H   0  0  0  0  0  0  0  0  0  0  0  0
   -0.0000   -0.0000    0.0000 C   0  0  0  0  0  0  0  0  0  0  0  0
   -0.3326   -1.5651    0.0000 C   0  0  0  0  0  0  0  0  0  0  0  0
    1.1054   -2.2664    0.0000 H   0  0  0  0  0  0  0  0  0  0  0  0
   -0.3326   -3.1650    0.0000 H   0  0  0  0  0  0  0  0  0  0  0  0
   -1.9239   -1.7323    0.0000 C   0  0  0  0  0  0  0  0  0  0  0  0
   -1.5912   -3.2973    0.0000 H   0  0  0  0  0  0  0  0  0  0  0  0
   -3.4456   -2.2267    0.0000 H   0  0  0  0  0  0  0  0  0  0  0  0
   -2.5746   -0.2706    0.0000 C   0  0  0  0  0  0  0  0  0  0  0  0
   -3.9603   -1.0706    0.0000 H   0  0  0  0  0  0  0  0  0  0  0  0
   -3.5151    1.0238    0.0000 H   0  0  0  0  0  0  0  0  0  0  0  0
   -1.3856    0.8000    0.0000 C   0  0  0  0  0  0  0  0  0  0  0  0
   -2.5746    1.8706    0.0000 H   0  0  0  0  0  0  0  0  0  0  0  0
   -0.4452    2.0945    0.0000 H   0  0  0  0  0  0  0  0  0  0  0  0
    1.5217   -0.4944    0.0000 C   0  0  0  0  0  0  0  0  0  0  0  0
    3.0434   -0.9888    0.0000 H   0  0  0  0  0  0  0  0  0  0  0  0
    2.7107    0.5762    0.0000 H   0  0  0  0  0  0  0  0  0  0  0  0
    2.1211   -1.9780    0.0000 H   0  0  0  0  0  0  0  0  0  0  0  0
  1  2  1  0  0  0  0
  1  3  1  0  0  0  0
  1  4  1  0  0  0  0
  4  5  1  0  0  0  0
  5  6  1  0  0  0  0
  5  7  1  0  0  0  0
  5  8  1  0  0  0  0
  8  9  1  0  0  0  0
  8 10  1  0  0  0  0
  8 11  1  0  0  0  0
 11 12  1  0  0  0  0
 11 13  1  0  0  0  0
 11 14  1  0  0  0  0
 14  4  1  0  0  0  0
 14 15  1  0  0  0  0
 14 16  1  0  0  0  0
  4 17  1  0  0  0  0
 17 18  1  0  0  0  0
 17 19  1  0  0  0  0
 17 20  1  0  0  0  0
M  END
> <ChemID>
105730

> <source_casrn>
40571-45-7

> <CAS>
40571-45-7

> <SMILES>
CC1(N)CCCC1

> <NAME>
CYCLOPENTANAMINE, 1-METHYL-

> <preferred_name>
Cyclopentanamine, 1-methyl-

> <iupac>
C6H13N

> <MPID>
24530

> <dsstox_substance_id>
DTXSID10334525

> <Canonical_QSARr>
CC1(N)CCCC1

> <InChI_Code_QSARr>
InChI=1S/C6H13N/c1-6(7)4-2-3-5-6/h2-5,7H2,1H3

> <InChI Key_QSARr>
TWASBYPJZBHZQJ-UHFFFAOYSA-N

> <Salt_Solvent>
?

> <BP>
121.0

$$$$
105734
  -INDIGO-08031720192D

 19 18  0  0  0  0  0  0  0  0999 V2000
    3.2000    0.0000    0.0000 C   0  0  0  0  0  0  0  0  0  0  0  0
    4.8000    0.0000    0.0000 H   0  0  0  0  0  0  0  0  0  0  0  0
    4.0000    1.3856    0.0000 H   0  0  0  0  0  0  0  0  0  0  0  0
    4.0000   -1.3857    0.0000 H   0  0  0  0  0  0  0  0  0  0  0  0
    1.6000    0.0000    0.0000 C   0  0  0  0  0  0  0  0  0  0  0  0
    1.6000    1.6000    0.0000 H   0  0  0  0  0  0  0  0  0  0  0  0
    0.0000    0.0000    0.0000 C   0  0  0  0  0  0  0  0  0  0  0  0
    0.0000   -1.6000    0.0000 H   0  0  0  0  0  0  0  0  0  0  0  0
   -1.5757   -0.2778    0.0000 C   0  0  0  0  0  0  0  0  0  0  0  0
   -2.9950    0.4610    0.0000 H   0  0  0  0  0  0  0  0  0  0  0  0
   -2.0569    1.2481    0.0000 H   0  0  0  0  0  0  0  0  0  0  0  0
   -2.1229   -1.7814    0.0000 C   0  0  0  0  0  0  0  0  0  0  0  0
   -2.6701   -3.2849    0.0000 H   0  0  0  0  0  0  0  0  0  0  0  0
   -3.6986   -2.0591    0.0000 H   0  0  0  0  0  0  0  0  0  0  0  0
   -1.0945   -3.0070    0.0000 H   0  0  0  0  0  0  0  0  0  0  0  0
    0.0000    1.6000    0.0000 O   0  0  0  0  0  0  0  0  0  0  0  0
   -1.3856    2.4000    0.0000 H   0  0  0  0  0  0  0  0  0  0  0  0
    1.6000   -1.6000    0.0000 O   0  0  0  0  0  0  0  0  0  0  0  0
    2.9856   -2.4000    0.0000 H   0  0  0  0  0  0  0  0  0  0  0  0
  1  2  1  0  0  0  0
  1  3  1  0  0  0  0
  1  4  1  0  0  0  0
  1  5  1  0  0  0  0
  5  6  1  0  0  0  0
  5  7  1  0  0  0  0
  7  8  1  0  0  0  0
  7  9  1  0  0  0  0
  9 10  1  0  0  0  0
  9 11  1  0  0  0  0
  9 12  1  0  0  0  0
 12 13  1  0  0  0  0
 12 14  1  0  0  0  0
 12 15  1  0  0  0  0
  7 16  1  0  0  0  0
 16 17  1  0  0  0  0
  5 18  1  0  0  0  0
 18 19  1  0  0  0  0
M  END
> <ChemID>
105734

> <source_casrn>
42027-23-6

> <CAS>
NOCAS_871390

> <SMILES>
CC(O)C(O)CC

> <NAME>
Pentane-2,3-diol

> <preferred_name>


> <iupac>


> <MPID>
24534

> <dsstox_substance_id>
DTXSID20871390

> <Canonical_QSARr>
CC(O)C(O)CC

> <InChI_Code_QSARr>
InChI=1S/C5H12O2/c1-3-5(7)4(2)6/h4-7H,3H2,1-2H3

> <InChI Key_QSARr>
XLMFDCKSFJWJTP-UHFFFAOYSA-N

> <Salt_Solvent>
?

> <BP>
187.5

$$$$
105738
  -INDIGO-08031720192D

 21 20  0  0  0  0  0  0  0  0999 V2000
   -0.6123   -1.4782    0.0000 F   0  0  0  0  0  0  0  0  0  0  0  0
    0.0000    0.0000    0.0000 C   0  0  0  0  0  0  0  0  0  0  0  0
    0.6124   -1.4782    0.0000 F   0  0  0  0  0  0  0  0  0  0  0  0
    1.3857    0.8000    0.0000 C   0  0  0  0  0  0  0  0  0  0  0  0
    0.7734    2.2782    0.0000 H   0  0  0  0  0  0  0  0  0  0  0  0
    1.9979    2.2782    0.0000 H   0  0  0  0  0  0  0  0  0  0  0  0
    2.7714    0.0000    0.0000 O   0  0  0  0  0  0  0  0  0  0  0  0
    4.1569    0.8000    0.0000 C   0  0  0  0  0  0  0  0  0  0  0  0
    4.1569    2.4000    0.0000 O   0  0  0  0  0  0  0  0  0  0  0  0
    5.5425    0.0000    0.0000 C   0  0  0  0  0  0  0  0  0  0  0  0
    6.9282    0.8000    0.0000 C   0  0  0  0  0  0  0  0  0  0  0  0
    8.3138    1.6000    0.0000 H   0  0  0  0  0  0  0  0  0  0  0  0
    8.3138    0.0000    0.0000 H   0  0  0  0  0  0  0  0  0  0  0  0
    6.9282    2.4000    0.0000 H   0  0  0  0  0  0  0  0  0  0  0  0
    5.5425   -1.6000    0.0000 C   0  0  0  0  0  0  0  0  0  0  0  0
    6.9282   -2.4000    0.0000 H   0  0  0  0  0  0  0  0  0  0  0  0
    4.1569   -2.4000    0.0000 H   0  0  0  0  0  0  0  0  0  0  0  0
   -1.3856    0.8000    0.0000 C   0  0  0  0  0  0  0  0  0  0  0  0
   -2.7713    1.6000    0.0000 H   0  0  0  0  0  0  0  0  0  0  0  0
   -2.7713    0.0000    0.0000 F   0  0  0  0  0  0  0  0  0  0  0  0
   -1.3856    2.4000    0.0000 F   0  0  0  0  0  0  0  0  0  0  0  0
  1  2  1  0  0  0  0
  2  3  1  0  0  0  0
  2  4  1  0  0  0  0
  4  5  1  0  0  0  0
  4  6  1  0  0  0  0
  4  7  1  0  0  0  0
  7  8  1  0  0  0  0
  8  9  2  0  0  0  0
  8 10  1  0  0  0  0
 10 11  1  0  0  0  0
 11 12  1  0  0  0  0
 11 13  1  0  0  0  0
 11 14  1  0  0  0  0
 10 15  2  0  0  0  0
 15 16  1  0  0  0  0
 15 17  1  0  0  0  0
  2 18  1  0  0  0  0
 18 19  1  0  0  0  0
 18 20  1  0  0  0  0
 18 21  1  0  0  0  0
M  END
> <ChemID>
105738

> <source_casrn>
45102-52-1

> <CAS>
45102-52-1

> <SMILES>
CC(=C)C(=O)OCC(F)(F)C(F)F

> <NAME>
2,2,3,3-Tetrafluoropropyl methacrylate

> <preferred_name>
2,2,3,3-Tetrafluoropropyl methacrylate

> <iupac>
2,2,3,3-tetrafluoropropyl 2-methylprop-2-enoate

> <MPID>
24538

> <dsstox_substance_id>
DTXSID50196386

> <Canonical_QSARr>
CC(=C)C(=O)OCC(F)(F)C(F)F

> <InChI_Code_QSARr>
InChI=1S/C7H8F4O2/c1-4(2)5(12)13-3-7(10,11)6(8)9/h6H,1,3H2,2H3

> <InChI Key_QSARr>
RSVZYSKAPMBSMY-UHFFFAOYSA-N

> <Salt_Solvent>
?

> <BP>
124.0

$$$$
105742
  -INDIGO-08031720192D

 35 35  0  0  0  0  0  0  0  0999 V2000
   -0.2528    2.8891    0.0000 C   0  0  0  0  0  0  0  0  0  0  0  0
    0.2944    4.3927    0.0000 H   0  0  0  0  0  0  0  0  0  0  0  0
   -1.2813    4.1148    0.0000 H   0  0  0  0  0  0  0  0  0  0  0  0
    1.3229    3.1670    0.0000 H   0  0  0  0  0  0  0  0  0  0  0  0
   -0.8000    1.3857    0.0000 C   0  0  0  0  0  0  0  0  0  0  0  0
   -2.4000    1.3857    0.0000 C   0  0  0  0  0  0  0  0  0  0  0  0
   -3.2000    2.7713    0.0000 H   0  0  0  0  0  0  0  0  0  0  0  0
   -3.2000    0.0001    0.0000 C   0  0  0  0  0  0  0  0  0  0  0  0
   -4.8000    0.0001    0.0000 H   0  0  0  0  0  0  0  0  0  0  0  0
   -2.4000   -1.3857    0.0000 C   0  0  0  0  0  0  0  0  0  0  0  0
   -3.2000   -2.7713    0.0000 H   0  0  0  0  0  0  0  0  0  0  0  0
   -0.8000   -1.3857    0.0000 C   0  0  0  0  0  0  0  0  0  0  0  0
   -0.2528   -2.8891    0.0000 C   0  0  0  0  0  0  0  0  0  0  0  0
    0.2944   -4.3927    0.0000 H   0  0  0  0  0  0  0  0  0  0  0  0
    1.3229   -3.1670    0.0000 H   0  0  0  0  0  0  0  0  0  0  0  0
   -1.2813   -4.1148    0.0000 H   0  0  0  0  0  0  0  0  0  0  0  0
    0.0000    0.0001    0.0000 C   0  0  0  0  0  0  0  0  0  0  0  0
    1.5757    0.2778    0.0000 N   0  0  0  0  0  0  0  0  0  0  0  0
    2.6042   -0.9478    0.0000 C   0  0  0  0  0  0  0  0  0  0  0  0
    2.6739   -2.5463    0.0000 H   0  0  0  0  0  0  0  0  0  0  0  0
    1.5231   -2.1275    0.0000 H   0  0  0  0  0  0  0  0  0  0  0  0
    4.1798   -0.6699    0.0000 C   0  0  0  0  0  0  0  0  0  0  0  0
    4.1101    0.9285    0.0000 H   0  0  0  0  0  0  0  0  0  0  0  0
    5.2609    0.5096    0.0000 H   0  0  0  0  0  0  0  0  0  0  0  0
    5.2083   -1.8956    0.0000 O   0  0  0  0  0  0  0  0  0  0  0  0
    6.7840   -1.6178    0.0000 C   0  0  0  0  0  0  0  0  0  0  0  0
    8.3597   -1.3399    0.0000 H   0  0  0  0  0  0  0  0  0  0  0  0
    7.8125   -2.8435    0.0000 H   0  0  0  0  0  0  0  0  0  0  0  0
    7.3312   -0.1143    0.0000 H   0  0  0  0  0  0  0  0  0  0  0  0
    2.1229    1.7814    0.0000 C   0  0  0  0  0  0  0  0  0  0  0  0
    3.3486    2.8099    0.0000 C   0  0  0  0  0  0  0  0  0  0  0  0
    4.5743    3.8382    0.0000 H   0  0  0  0  0  0  0  0  0  0  0  0
    3.0707    4.3856    0.0000 H   0  0  0  0  0  0  0  0  0  0  0  0
    4.8520    2.2625    0.0000 Cl  0  0  0  0  0  0  0  0  0  0  0  0
    0.6195    2.3286    0.0000 O   0  0  0  0  0  0  0  0  0  0  0  0
  1  2  1  0  0  0  0
  1  3  1  0  0  0  0
  1  4  1  0  0  0  0
  1  5  1  0  0  0  0
  5  6  1  0  0  0  0
  6  7  1  0  0  0  0
  6  8  2  0  0  0  0
  8  9  1  0  0  0  0
  8 10  1  0  0  0  0
 10 11  1  0  0  0  0
 10 12  2  0  0  0  0
 12 13  1  0  0  0  0
 13 14  1  0  0  0  0
 13 15  1  0  0  0  0
 13 16  1  0  0  0  0
 12 17  1  0  0  0  0
 17  5  2  0  0  0  0
 17 18  1  0  0  0  0
 18 19  1  0  0  0  0
 19 20  1  0  0  0  0
 19 21  1  0  0  0  0
 19 22  1  0  0  0  0
 22 23  1  0  0  0  0
 22 24  1  0  0  0  0
 22 25  1  0  0  0  0
 25 26  1  0  0  0  0
 26 27  1  0  0  0  0
 26 28  1  0  0  0  0
 26 29  1  0  0  0  0
 18 30  1  0  0  0  0
 30 31  1  0  0  0  0
 31 32  1  0  0  0  0
 31 33  1  0  0  0  0
 31 34  1  0  0  0  0
 30 35  2  0  0  0  0
M  END
> <ChemID>
105742

> <source_casrn>
50563-36-5

> <CAS>
50563-36-5

> <SMILES>
COCCN(C(=O)CCl)c1c(C)cccc1C

> <NAME>
Dimethachlor

> <preferred_name>
Dimethachlor

> <iupac>
2-chloro-N-(2,6-dimethylphenyl)-N-(2-methoxyethyl)acetamide

> <MPID>
24542

> <dsstox_substance_id>
DTXSID3058111

> <Canonical_QSARr>
COCCN(C(=O)CCl)c1c(C)cccc1C

> <InChI_Code_QSARr>
InChI=1S/C13H18ClNO2/c1-10-5-4-6-11(2)13(10)15(7-8-17-3)12(16)9-14/h4-6H,7-9H2,1-3H3

> <InChI Key_QSARr>
SCCDDNKJYDZXMM-UHFFFAOYSA-N

> <Salt_Solvent>
?

> <BP>
320.0

$$$$
105746
  -INDIGO-08031720192D

 30 30  0  0  0  0  0  0  0  0999 V2000
    0.0000    0.0001    0.0000 C   0  0  0  0  0  0  0  0  0  0  0  0
   -0.8000    1.3857    0.0000 C   0  0  0  0  0  0  0  0  0  0  0  0
    0.7035    1.9329    0.0000 H   0  0  0  0  0  0  0  0  0  0  0  0
   -1.0779    2.9613    0.0000 H   0  0  0  0  0  0  0  0  0  0  0  0
   -2.4000    1.3857    0.0000 C   0  0  0  0  0  0  0  0  0  0  0  0
   -2.1222    2.9613    0.0000 H   0  0  0  0  0  0  0  0  0  0  0  0
   -3.6256    2.4141    0.0000 C   0  0  0  0  0  0  0  0  0  0  0  0
   -4.8513    3.4426    0.0000 H   0  0  0  0  0  0  0  0  0  0  0  0
   -5.1292    1.8669    0.0000 H   0  0  0  0  0  0  0  0  0  0  0  0
   -3.3478    3.9898    0.0000 H   0  0  0  0  0  0  0  0  0  0  0  0
   -3.2001    0.0001    0.0000 C   0  0  0  0  0  0  0  0  0  0  0  0
   -4.4257    1.0285    0.0000 H   0  0  0  0  0  0  0  0  0  0  0  0
   -4.4257   -1.0285    0.0000 H   0  0  0  0  0  0  0  0  0  0  0  0
   -2.4000   -1.3857    0.0000 C   0  0  0  0  0  0  0  0  0  0  0  0
   -2.1222   -2.9613    0.0000 H   0  0  0  0  0  0  0  0  0  0  0  0
   -3.6256   -2.4141    0.0000 C   0  0  0  0  0  0  0  0  0  0  0  0
   -4.8513   -3.4426    0.0000 H   0  0  0  0  0  0  0  0  0  0  0  0
   -3.3478   -3.9898    0.0000 H   0  0  0  0  0  0  0  0  0  0  0  0
   -5.1292   -1.8669    0.0000 H   0  0  0  0  0  0  0  0  0  0  0  0
   -0.8000   -1.3857    0.0000 C   0  0  0  0  0  0  0  0  0  0  0  0
   -1.0779   -2.9613    0.0000 H   0  0  0  0  0  0  0  0  0  0  0  0
    0.7035   -1.9329    0.0000 H   0  0  0  0  0  0  0  0  0  0  0  0
    1.2256   -1.0285    0.0000 C   0  0  0  0  0  0  0  0  0  0  0  0
    2.4513   -2.0570    0.0000 H   0  0  0  0  0  0  0  0  0  0  0  0
    2.7292   -0.4813    0.0000 H   0  0  0  0  0  0  0  0  0  0  0  0
    1.5035   -2.6042    0.0000 H   0  0  0  0  0  0  0  0  0  0  0  0
    1.2256    1.0285    0.0000 C   0  0  0  0  0  0  0  0  0  0  0  0
    2.4513    2.0570    0.0000 H   0  0  0  0  0  0  0  0  0  0  0  0
    2.7292    0.4813    0.0000 H   0  0  0  0  0  0  0  0  0  0  0  0
    1.5035    2.6042    0.0000 H   0  0  0  0  0  0  0  0  0  0  0  0
  1  2  1  0  0  0  0
  2  3  1  0  0  0  0
  2  4  1  0  0  0  0
  2  5  1  0  0  0  0
  5  6  1  0  0  0  0
  5  7  1  0  0  0  0
  7  8  1  0  0  0  0
  7  9  1  0  0  0  0
  7 10  1  0  0  0  0
  5 11  1  0  0  0  0
 11 12  1  0  0  0  0
 11 13  1  0  0  0  0
 11 14  1  0  0  0  0
 14 15  1  0  0  0  0
 14 16  1  0  0  0  0
 16 17  1  0  0  0  0
 16 18  1  0  0  0  0
 16 19  1  0  0  0  0
 14 20  1  0  0  0  0
 20  1  1  0  0  0  0
 20 21  1  0  0  0  0
 20 22  1  0  0  0  0
  1 23  1  0  0  0  0
 23 24  1  0  0  0  0
 23 25  1  0  0  0  0
 23 26  1  0  0  0  0
  1 27  1  0  0  0  0
 27 28  1  0  0  0  0
 27 29  1  0  0  0  0
 27 30  1  0  0  0  0
M  END
> <ChemID>
105746

> <source_casrn>
50876-32-9

> <CAS>
50876-32-9

> <SMILES>
CC1(C)C[C@H](C)C[C@H](C)C1

> <NAME>
CYCLOHEXANE, 1,1,3,5-TETRAMETHYL-, CIS-

> <preferred_name>


> <iupac>


> <MPID>
24546

> <dsstox_substance_id>
DTXSID10876157

> <Canonical_QSARr>
CC1(C)CC(C)CC(C)C1

> <InChI_Code_QSARr>
InChI=1S/C10H20/c1-8-5-9(2)7-10(3,4)6-8/h8-9H,5-7H2,1-4H3

> <InChI Key_QSARr>
WOJSMJIXPQLESQ-UHFFFAOYSA-N

> <Salt_Solvent>
?

> <BP>
152.5

$$$$
105750
  -INDIGO-08031720192D

 28 27  0  0  0  0  0  0  0  0999 V2000
   -2.7713   -0.0000    0.0000 C   0  0  0  0  0  0  0  0  0  0  0  0
   -2.6164    0.8782    0.0000 H   0  0  0  0  0  0  0  0  0  0  0  0
   -3.3835    1.4782    0.0000 H   0  0  0  0  0  0  0  0  0  0  0  0
   -1.3856   -0.8000    0.0000 O   0  0  0  0  0  0  0  0  0  0  0  0
    0.0001   -0.0000    0.0000 C   0  0  0  0  0  0  0  0  0  0  0  0
   -1.0285    1.2257    0.0000 C   0  0  0  0  0  0  0  0  0  0  0  0
   -2.0570    2.4514    0.0000 H   0  0  0  0  0  0  0  0  0  0  0  0
   -0.4812    2.7292    0.0000 H   0  0  0  0  0  0  0  0  0  0  0  0
   -1.9116    1.3494    0.0000 H   0  0  0  0  0  0  0  0  0  0  0  0
    1.3856    0.8000    0.0000 C   0  0  0  0  0  0  0  0  0  0  0  0
    2.7713    1.6000    0.0000 H   0  0  0  0  0  0  0  0  0  0  0  0
    2.7713   -0.0000    0.0000 H   0  0  0  0  0  0  0  0  0  0  0  0
    1.3856    2.4000    0.0000 H   0  0  0  0  0  0  0  0  0  0  0  0
    0.8000   -1.3857    0.0000 C   0  0  0  0  0  0  0  0  0  0  0  0
    1.6000   -2.7713    0.0000 H   0  0  0  0  0  0  0  0  0  0  0  0
    0.0001   -2.7713    0.0000 H   0  0  0  0  0  0  0  0  0  0  0  0
    2.4000   -1.3857    0.0000 H   0  0  0  0  0  0  0  0  0  0  0  0
   -4.1569   -0.8000    0.0000 C   0  0  0  0  0  0  0  0  0  0  0  0
   -4.7692   -2.2782    0.0000 H   0  0  0  0  0  0  0  0  0  0  0  0
   -3.5447   -2.2782    0.0000 H   0  0  0  0  0  0  0  0  0  0  0  0
   -5.5426   -0.0000    0.0000 O   0  0  0  0  0  0  0  0  0  0  0  0
   -6.9283   -0.8000    0.0000 C   0  0  0  0  0  0  0  0  0  0  0  0
   -7.5404   -2.2782    0.0000 H   0  0  0  0  0  0  0  0  0  0  0  0
   -6.3159   -2.2782    0.0000 H   0  0  0  0  0  0  0  0  0  0  0  0
   -8.3138   -0.0000    0.0000 C   0  0  0  0  0  0  0  0  0  0  0  0
   -9.6995    0.8000    0.0000 H   0  0  0  0  0  0  0  0  0  0  0  0
   -9.6995   -0.8000    0.0000 H   0  0  0  0  0  0  0  0  0  0  0  0
   -8.3138    1.6000    0.0000 H   0  0  0  0  0  0  0  0  0  0  0  0
  1  2  1  0  0  0  0
  1  3  1  0  0  0  0
  1  4  1  0  0  0  0
  4  5  1  0  0  0  0
  5  6  1  0  0  0  0
  6  7  1  0  0  0  0
  6  8  1  0  0  0  0
  6  9  1  0  0  0  0
  5 10  1  0  0  0  0
 10 11  1  0  0  0  0
 10 12  1  0  0  0  0
 10 13  1  0  0  0  0
  5 14  1  0  0  0  0
 14 15  1  0  0  0  0
 14 16  1  0  0  0  0
 14 17  1  0  0  0  0
  1 18  1  0  0  0  0
 18 19  1  0  0  0  0
 18 20  1  0  0  0  0
 18 21  1  0  0  0  0
 21 22  1  0  0  0  0
 22 23  1  0  0  0  0
 22 24  1  0  0  0  0
 22 25  1  0  0  0  0
 25 26  1  0  0  0  0
 25 27  1  0  0  0  0
 25 28  1  0  0  0  0
M  END
> <ChemID>
105750

> <source_casrn>
51422-54-9

> <CAS>
51422-54-9

> <SMILES>
CCOCCOC(C)(C)C

> <NAME>
ETHYL T-BUTYL ETHYL DIETHER

> <preferred_name>
Propane, 2-(2-ethoxyethoxy)-2-methyl-

> <iupac>
2-(2-Ethoxyethoxy)-2-methylpropane

> <MPID>
24550

> <dsstox_substance_id>
DTXSID7068637

> <Canonical_QSARr>
CCOCCOC(C)(C)C

> <InChI_Code_QSARr>
InChI=1S/C8H18O2/c1-5-9-6-7-10-8(2,3)4/h5-7H2,1-4H3

> <InChI Key_QSARr>
NUNQKTCKURIZQX-UHFFFAOYSA-N

> <Salt_Solvent>
?

> <BP>
148.0

$$$$
105754
  -INDIGO-08031720192D

 23 23  0  0  0  0  0  0  0  0999 V2000
   -1.3856    2.4000    0.0000 O   0  0  0  0  0  0  0  0  0  0  0  0
   -1.3856    0.8000    0.0000 C   0  0  0  0  0  0  0  0  0  0  0  0
    0.0001   -0.0000    0.0000 C   0  0  0  0  0  0  0  0  0  0  0  0
    1.3856    0.8000    0.0000 C   0  0  0  0  0  0  0  0  0  0  0  0
    1.3856    2.4000    0.0000 H   0  0  0  0  0  0  0  0  0  0  0  0
    2.7712   -0.0000    0.0000 C   0  0  0  0  0  0  0  0  0  0  0  0
    4.1569    0.8000    0.0000 C   0  0  0  0  0  0  0  0  0  0  0  0
    5.5426    1.6000    0.0000 H   0  0  0  0  0  0  0  0  0  0  0  0
    5.5426   -0.0000    0.0000 H   0  0  0  0  0  0  0  0  0  0  0  0
    4.1569    2.4000    0.0000 H   0  0  0  0  0  0  0  0  0  0  0  0
    2.7712   -1.6000    0.0000 C   0  0  0  0  0  0  0  0  0  0  0  0
    4.1569   -2.4000    0.0000 H   0  0  0  0  0  0  0  0  0  0  0  0
    1.3856   -2.4000    0.0000 C   0  0  0  0  0  0  0  0  0  0  0  0
    1.3856   -4.0000    0.0000 H   0  0  0  0  0  0  0  0  0  0  0  0
    0.0001   -1.6000    0.0000 C   0  0  0  0  0  0  0  0  0  0  0  0
   -1.3856   -2.4000    0.0000 H   0  0  0  0  0  0  0  0  0  0  0  0
   -2.7712   -0.0000    0.0000 C   0  0  0  0  0  0  0  0  0  0  0  0
   -3.3836   -1.4782    0.0000 H   0  0  0  0  0  0  0  0  0  0  0  0
   -2.1589   -1.4782    0.0000 H   0  0  0  0  0  0  0  0  0  0  0  0
   -4.1569    0.8000    0.0000 C   0  0  0  0  0  0  0  0  0  0  0  0
   -5.5426    1.6000    0.0000 H   0  0  0  0  0  0  0  0  0  0  0  0
   -5.5426   -0.0000    0.0000 H   0  0  0  0  0  0  0  0  0  0  0  0
   -4.1569    2.4000    0.0000 H   0  0  0  0  0  0  0  0  0  0  0  0
  1  2  2  0  0  0  0
  2  3  1  0  0  0  0
  3  4  1  0  0  0  0
  4  5  1  0  0  0  0
  4  6  2  0  0  0  0
  6  7  1  0  0  0  0
  7  8  1  0  0  0  0
  7  9  1  0  0  0  0
  7 10  1  0  0  0  0
  6 11  1  0  0  0  0
 11 12  1  0  0  0  0
 11 13  2  0  0  0  0
 13 14  1  0  0  0  0
 13 15  1  0  0  0  0
 15  3  2  0  0  0  0
 15 16  1  0  0  0  0
  2 17  1  0  0  0  0
 17 18  1  0  0  0  0
 17 19  1  0  0  0  0
 17 20  1  0  0  0  0
 20 21  1  0  0  0  0
 20 22  1  0  0  0  0
 20 23  1  0  0  0  0
M  END
> <ChemID>
105754

> <source_casrn>
51772-30-6

> <CAS>
51772-30-6

> <SMILES>
Cc1cc(ccc1)C(=O)CC

> <NAME>
3-Methylphenyl ethyl ketone

> <preferred_name>
3'-Methylpropiophenone

> <iupac>
1-(3-methylphenyl)propan-1-one

> <MPID>
24554

> <dsstox_substance_id>
DTXSID90199699

> <Canonical_QSARr>
Cc1cc(ccc1)C(=O)CC

> <InChI_Code_QSARr>
InChI=1S/C10H12O/c1-3-10(11)9-6-4-5-8(2)7-9/h4-7H,3H2,1-2H3

> <InChI Key_QSARr>
QHVNQIJBHWOZRJ-UHFFFAOYSA-N

> <Salt_Solvent>
?

> <BP>
235.0

$$$$
105758
  -INDIGO-08031720192D

 32 31  0  0  0  0  0  0  0  0999 V2000
    3.7576    0.7444    0.0000 C   0  0  0  0  0  0  0  0  0  0  0  0
    4.7861    1.9701    0.0000 H   0  0  0  0  0  0  0  0  0  0  0  0
    3.4797    2.3202    0.0000 H   0  0  0  0  0  0  0  0  0  0  0  0
    5.3334    0.4666    0.0000 H   0  0  0  0  0  0  0  0  0  0  0  0
    2.7291   -0.4813    0.0000 C   0  0  0  0  0  0  0  0  0  0  0  0
    1.9292   -1.8669    0.0000 H   0  0  0  0  0  0  0  0  0  0  0  0
    1.5035    0.5472    0.0000 C   0  0  0  0  0  0  0  0  0  0  0  0
    1.1572    2.1093    0.0000 H   0  0  0  0  0  0  0  0  0  0  0  0
    2.3631    1.8966    0.0000 H   0  0  0  0  0  0  0  0  0  0  0  0
    0.0000    0.0001    0.0000 C   0  0  0  0  0  0  0  0  0  0  0  0
    0.8001   -1.3856    0.0000 H   0  0  0  0  0  0  0  0  0  0  0  0
   -1.2256   -1.0285    0.0000 C   0  0  0  0  0  0  0  0  0  0  0  0
   -0.1448   -2.2081    0.0000 H   0  0  0  0  0  0  0  0  0  0  0  0
   -1.2955   -2.6269    0.0000 H   0  0  0  0  0  0  0  0  0  0  0  0
   -2.8013   -1.3062    0.0000 C   0  0  0  0  0  0  0  0  0  0  0  0
   -4.2205   -0.5675    0.0000 H   0  0  0  0  0  0  0  0  0  0  0  0
   -3.2825    0.2197    0.0000 H   0  0  0  0  0  0  0  0  0  0  0  0
   -3.3486   -2.8098    0.0000 C   0  0  0  0  0  0  0  0  0  0  0  0
   -3.8958   -4.3133    0.0000 H   0  0  0  0  0  0  0  0  0  0  0  0
   -4.9243   -3.0877    0.0000 H   0  0  0  0  0  0  0  0  0  0  0  0
   -2.3202   -4.0354    0.0000 H   0  0  0  0  0  0  0  0  0  0  0  0
   -0.8001    1.3856    0.0000 C   0  0  0  0  0  0  0  0  0  0  0  0
   -2.2782    0.7734    0.0000 H   0  0  0  0  0  0  0  0  0  0  0  0
   -2.2782    1.9980    0.0000 H   0  0  0  0  0  0  0  0  0  0  0  0
    0.0000    2.7713    0.0000 C   0  0  0  0  0  0  0  0  0  0  0  0
   -0.8001    4.1569    0.0000 H   0  0  0  0  0  0  0  0  0  0  0  0
    0.8001    4.1569    0.0000 H   0  0  0  0  0  0  0  0  0  0  0  0
   -1.6000    2.7713    0.0000 H   0  0  0  0  0  0  0  0  0  0  0  0
    3.9549   -1.5097    0.0000 C   0  0  0  0  0  0  0  0  0  0  0  0
    5.1805   -2.5381    0.0000 H   0  0  0  0  0  0  0  0  0  0  0  0
    5.4584   -0.9624    0.0000 H   0  0  0  0  0  0  0  0  0  0  0  0
    3.6770   -3.0853    0.0000 H   0  0  0  0  0  0  0  0  0  0  0  0
  1  2  1  0  0  0  0
  1  3  1  0  0  0  0
  1  4  1  0  0  0  0
  1  5  1  0  0  0  0
  5  6  1  0  0  0  0
  5  7  1  0  0  0  0
  7  8  1  0  0  0  0
  7  9  1  0  0  0  0
  7 10  1  0  0  0  0
 10 11  1  0  0  0  0
 10 12  1  0  0  0  0
 12 13  1  0  0  0  0
 12 14  1  0  0  0  0
 12 15  1  0  0  0  0
 15 16  1  0  0  0  0
 15 17  1  0  0  0  0
 15 18  1  0  0  0  0
 18 19  1  0  0  0  0
 18 20  1  0  0  0  0
 18 21  1  0  0  0  0
 10 22  1  0  0  0  0
 22 23  1  0  0  0  0
 22 24  1  0  0  0  0
 22 25  1  0  0  0  0
 25 26  1  0  0  0  0
 25 27  1  0  0  0  0
 25 28  1  0  0  0  0
  5 29  1  0  0  0  0
 29 30  1  0  0  0  0
 29 31  1  0  0  0  0
 29 32  1  0  0  0  0
M  END
> <ChemID>
105758

> <source_casrn>
52896-88-5

> <CAS>
NOCAS_871401

> <SMILES>
CC(C)CC(CCC)CC

> <NAME>
4-ETHYL-2-METHYLHEPTANE

> <preferred_name>


> <iupac>


> <MPID>
24558

> <dsstox_substance_id>
DTXSID70871401

> <Canonical_QSARr>
CC(C)CC(CCC)CC

> <InChI_Code_QSARr>
InChI=1S/C10H22/c1-5-7-10(6-2)8-9(3)4/h9-10H,5-8H2,1-4H3

> <InChI Key_QSARr>
OJDKRASKNKPYDH-UHFFFAOYSA-N

> <Salt_Solvent>
?

> <BP>
158.0

$$$$
105762
  -INDIGO-08031720192D

 32 31  0  0  0  0  0  0  0  0999 V2000
    1.0285   -1.2257    0.0000 C   0  0  0  0  0  0  0  0  0  0  0  0
    2.0570   -2.4514    0.0000 H   0  0  0  0  0  0  0  0  0  0  0  0
    2.6042   -0.9478    0.0000 H   0  0  0  0  0  0  0  0  0  0  0  0
    0.7506   -2.8013    0.0000 H   0  0  0  0  0  0  0  0  0  0  0  0
    0.0000   -0.0001    0.0000 C   0  0  0  0  0  0  0  0  0  0  0  0
   -1.3856   -0.8000    0.0000 C   0  0  0  0  0  0  0  0  0  0  0  0
   -2.1856    0.5856    0.0000 H   0  0  0  0  0  0  0  0  0  0  0  0
   -2.8891   -1.3473    0.0000 C   0  0  0  0  0  0  0  0  0  0  0  0
   -3.7488   -2.6967    0.0000 H   0  0  0  0  0  0  0  0  0  0  0  0
   -2.8194   -2.9457    0.0000 H   0  0  0  0  0  0  0  0  0  0  0  0
   -4.1148   -0.3187    0.0000 C   0  0  0  0  0  0  0  0  0  0  0  0
   -3.2551    1.0306    0.0000 H   0  0  0  0  0  0  0  0  0  0  0  0
   -4.4611    1.2433    0.0000 H   0  0  0  0  0  0  0  0  0  0  0  0
   -5.6183   -0.8660    0.0000 C   0  0  0  0  0  0  0  0  0  0  0  0
   -6.4780   -2.2155    0.0000 H   0  0  0  0  0  0  0  0  0  0  0  0
   -5.2720   -2.4281    0.0000 H   0  0  0  0  0  0  0  0  0  0  0  0
   -6.8440    0.1624    0.0000 C   0  0  0  0  0  0  0  0  0  0  0  0
   -8.0696    1.1909    0.0000 H   0  0  0  0  0  0  0  0  0  0  0  0
   -8.3475   -0.3847    0.0000 H   0  0  0  0  0  0  0  0  0  0  0  0
   -6.5662    1.7382    0.0000 H   0  0  0  0  0  0  0  0  0  0  0  0
   -0.5856   -2.1856    0.0000 C   0  0  0  0  0  0  0  0  0  0  0  0
   -1.3856   -3.5712    0.0000 H   0  0  0  0  0  0  0  0  0  0  0  0
   -0.0385   -3.6891    0.0000 H   0  0  0  0  0  0  0  0  0  0  0  0
   -2.1856   -2.1856    0.0000 H   0  0  0  0  0  0  0  0  0  0  0  0
    1.3857    0.8000    0.0000 C   0  0  0  0  0  0  0  0  0  0  0  0
    2.7713    1.6000    0.0000 H   0  0  0  0  0  0  0  0  0  0  0  0
    2.7713   -0.0001    0.0000 H   0  0  0  0  0  0  0  0  0  0  0  0
    1.3857    2.4000    0.0000 H   0  0  0  0  0  0  0  0  0  0  0  0
   -0.5473    1.5035    0.0000 C   0  0  0  0  0  0  0  0  0  0  0  0
   -1.0945    3.0070    0.0000 H   0  0  0  0  0  0  0  0  0  0  0  0
    0.4812    2.7292    0.0000 H   0  0  0  0  0  0  0  0  0  0  0  0
   -2.1230    1.7813    0.0000 H   0  0  0  0  0  0  0  0  0  0  0  0
  1  2  1  0  0  0  0
  1  3  1  0  0  0  0
  1  4  1  0  0  0  0
  1  5  1  0  0  0  0
  5  6  1  0  0  0  0
  6  7  1  0  0  0  0
  6  8  1  0  0  0  0
  8  9  1  0  0  0  0
  8 10  1  0  0  0  0
  8 11  1  0  0  0  0
 11 12  1  0  0  0  0
 11 13  1  0  0  0  0
 11 14  1  0  0  0  0
 14 15  1  0  0  0  0
 14 16  1  0  0  0  0
 14 17  1  0  0  0  0
 17 18  1  0  0  0  0
 17 19  1  0  0  0  0
 17 20  1  0  0  0  0
  6 21  1  0  0  0  0
 21 22  1  0  0  0  0
 21 23  1  0  0  0  0
 21 24  1  0  0  0  0
  5 25  1  0  0  0  0
 25 26  1  0  0  0  0
 25 27  1  0  0  0  0
 25 28  1  0  0  0  0
  5 29  1  0  0  0  0
 29 30  1  0  0  0  0
 29 31  1  0  0  0  0
 29 32  1  0  0  0  0
M  END
> <ChemID>
105762

> <source_casrn>
52896-92-1

> <CAS>
NOCAS_871405

> <SMILES>
CCCCC(C)C(C)(C)C

> <NAME>
2,2,3-TRIMETHYLHEPTANE

> <preferred_name>


> <iupac>


> <MPID>
24562

> <dsstox_substance_id>
DTXSID10871405

> <Canonical_QSARr>
CCCCC(C)C(C)(C)C

> <InChI_Code_QSARr>
InChI=1S/C10H22/c1-6-7-8-9(2)10(3,4)5/h9H,6-8H2,1-5H3

> <InChI Key_QSARr>
ACYHSTUWOQNWCX-UHFFFAOYSA-N

> <Salt_Solvent>
?

> <BP>
157.8

$$$$
105766
  -INDIGO-08031720192D

 32 31  0  0  0  0  0  0  0  0999 V2000
    1.8778   -1.5757    0.0000 C   0  0  0  0  0  0  0  0  0  0  0  0
    3.3814   -2.1230    0.0000 H   0  0  0  0  0  0  0  0  0  0  0  0
    2.1557   -3.1514    0.0000 H   0  0  0  0  0  0  0  0  0  0  0  0
    3.2635   -0.7757    0.0000 H   0  0  0  0  0  0  0  0  0  0  0  0
    1.5999    0.0000    0.0000 C   0  0  0  0  0  0  0  0  0  0  0  0
    1.3222    1.5757    0.0000 H   0  0  0  0  0  0  0  0  0  0  0  0
    0.0000    0.0000    0.0000 C   0  0  0  0  0  0  0  0  0  0  0  0
   -1.5999    0.0000    0.0000 C   0  0  0  0  0  0  0  0  0  0  0  0
   -2.8694   -0.9741    0.0000 H   0  0  0  0  0  0  0  0  0  0  0  0
   -1.8089   -1.5863    0.0000 H   0  0  0  0  0  0  0  0  0  0  0  0
   -2.9857    0.7999    0.0000 C   0  0  0  0  0  0  0  0  0  0  0  0
   -2.3733    2.2782    0.0000 H   0  0  0  0  0  0  0  0  0  0  0  0
   -3.5979    2.2782    0.0000 H   0  0  0  0  0  0  0  0  0  0  0  0
   -4.3712    0.0000    0.0000 C   0  0  0  0  0  0  0  0  0  0  0  0
   -5.7569   -0.8000    0.0000 H   0  0  0  0  0  0  0  0  0  0  0  0
   -5.7569    0.7999    0.0000 H   0  0  0  0  0  0  0  0  0  0  0  0
   -4.3712   -1.6000    0.0000 H   0  0  0  0  0  0  0  0  0  0  0  0
    0.0000    1.6000    0.0000 C   0  0  0  0  0  0  0  0  0  0  0  0
   -1.1797    2.6810    0.0000 H   0  0  0  0  0  0  0  0  0  0  0  0
   -1.5985    1.5303    0.0000 H   0  0  0  0  0  0  0  0  0  0  0  0
    1.2257    2.6284    0.0000 C   0  0  0  0  0  0  0  0  0  0  0  0
    2.4514    3.6569    0.0000 H   0  0  0  0  0  0  0  0  0  0  0  0
    0.9478    4.2042    0.0000 H   0  0  0  0  0  0  0  0  0  0  0  0
    2.7293    2.0813    0.0000 H   0  0  0  0  0  0  0  0  0  0  0  0
    0.0000   -1.6000    0.0000 C   0  0  0  0  0  0  0  0  0  0  0  0
    0.0000   -3.2000    0.0000 H   0  0  0  0  0  0  0  0  0  0  0  0
   -1.2257   -2.6284    0.0000 H   0  0  0  0  0  0  0  0  0  0  0  0
    1.3857   -2.4000    0.0000 H   0  0  0  0  0  0  0  0  0  0  0  0
    3.1757    0.2779    0.0000 C   0  0  0  0  0  0  0  0  0  0  0  0
    4.7514    0.5557    0.0000 H   0  0  0  0  0  0  0  0  0  0  0  0
    3.7229    1.7813    0.0000 H   0  0  0  0  0  0  0  0  0  0  0  0
    4.4013   -0.7506    0.0000 H   0  0  0  0  0  0  0  0  0  0  0  0
  1  2  1  0  0  0  0
  1  3  1  0  0  0  0
  1  4  1  0  0  0  0
  1  5  1  0  0  0  0
  5  6  1  0  0  0  0
  5  7  1  0  0  0  0
  7  8  1  0  0  0  0
  8  9  1  0  0  0  0
  8 10  1  0  0  0  0
  8 11  1  0  0  0  0
 11 12  1  0  0  0  0
 11 13  1  0  0  0  0
 11 14  1  0  0  0  0
 14 15  1  0  0  0  0
 14 16  1  0  0  0  0
 14 17  1  0  0  0  0
  7 18  1  0  0  0  0
 18 19  1  0  0  0  0
 18 20  1  0  0  0  0
 18 21  1  0  0  0  0
 21 22  1  0  0  0  0
 21 23  1  0  0  0  0
 21 24  1  0  0  0  0
  7 25  1  0  0  0  0
 25 26  1  0  0  0  0
 25 27  1  0  0  0  0
 25 28  1  0  0  0  0
  5 29  1  0  0  0  0
 29 30  1  0  0  0  0
 29 31  1  0  0  0  0
 29 32  1  0  0  0  0
M  END
> <ChemID>
105766

> <source_casrn>
52897-00-4

> <CAS>
NOCAS_871408

> <SMILES>
CCC(C)(CCC)C(C)C

> <NAME>
3-ETHYL-2,3-DIMETHYLHEXANE

> <preferred_name>


> <iupac>


> <MPID>
24566

> <dsstox_substance_id>
DTXSID90871408

> <Canonical_QSARr>
CCC(C)(CCC)C(C)C

> <InChI_Code_QSARr>
InChI=1S/C10H22/c1-6-8-10(5,7-2)9(3)4/h9H,6-8H2,1-5H3

> <InChI Key_QSARr>
PJIFKODHGMUPFH-UHFFFAOYSA-N

> <Salt_Solvent>
?

> <BP>
166.0

$$$$
105770
  -INDIGO-08031720192D

 32 31  0  0  0  0  0  0  0  0999 V2000
    2.7713   -0.0000    0.0000 C   0  0  0  0  0  0  0  0  0  0  0  0
    4.1569    0.8000    0.0000 H   0  0  0  0  0  0  0  0  0  0  0  0
    4.1569   -0.8000    0.0000 H   0  0  0  0  0  0  0  0  0  0  0  0
    2.7713    1.6000    0.0000 H   0  0  0  0  0  0  0  0  0  0  0  0
    1.3857    0.8000    0.0000 C   0  0  0  0  0  0  0  0  0  0  0  0
    0.7733    2.2782    0.0000 H   0  0  0  0  0  0  0  0  0  0  0  0
    1.9980    2.2782    0.0000 H   0  0  0  0  0  0  0  0  0  0  0  0
    0.0000   -0.0000    0.0000 C   0  0  0  0  0  0  0  0  0  0  0  0
   -1.3856   -0.8000    0.0000 C   0  0  0  0  0  0  0  0  0  0  0  0
   -1.9329    0.7035    0.0000 H   0  0  0  0  0  0  0  0  0  0  0  0
   -2.8891   -1.3473    0.0000 C   0  0  0  0  0  0  0  0  0  0  0  0
   -4.4151   -0.8661    0.0000 H   0  0  0  0  0  0  0  0  0  0  0  0
   -3.6279    0.0720    0.0000 H   0  0  0  0  0  0  0  0  0  0  0  0
   -3.1670   -2.9229    0.0000 C   0  0  0  0  0  0  0  0  0  0  0  0
   -4.6705   -3.4702    0.0000 H   0  0  0  0  0  0  0  0  0  0  0  0
   -3.4449   -4.4986    0.0000 H   0  0  0  0  0  0  0  0  0  0  0  0
   -4.3926   -1.8945    0.0000 H   0  0  0  0  0  0  0  0  0  0  0  0
   -0.8383   -2.3035    0.0000 C   0  0  0  0  0  0  0  0  0  0  0  0
   -1.3195   -3.8295    0.0000 H   0  0  0  0  0  0  0  0  0  0  0  0
   -2.2577   -3.0423    0.0000 H   0  0  0  0  0  0  0  0  0  0  0  0
    0.6652   -2.8507    0.0000 C   0  0  0  0  0  0  0  0  0  0  0  0
    2.1686   -3.3980    0.0000 H   0  0  0  0  0  0  0  0  0  0  0  0
    0.9429   -4.4264    0.0000 H   0  0  0  0  0  0  0  0  0  0  0  0
    1.8159   -2.6139    0.0000 H   0  0  0  0  0  0  0  0  0  0  0  0
   -0.8000    1.3856    0.0000 C   0  0  0  0  0  0  0  0  0  0  0  0
   -1.6001    2.7713    0.0000 H   0  0  0  0  0  0  0  0  0  0  0  0
    0.0000    2.7713    0.0000 H   0  0  0  0  0  0  0  0  0  0  0  0
   -2.4000    1.3856    0.0000 H   0  0  0  0  0  0  0  0  0  0  0  0
    0.8000   -1.3857    0.0000 C   0  0  0  0  0  0  0  0  0  0  0  0
    1.8908   -1.8223    0.0000 H   0  0  0  0  0  0  0  0  0  0  0  0
    0.0000   -2.7713    0.0000 H   0  0  0  0  0  0  0  0  0  0  0  0
    2.3035   -0.8384    0.0000 H   0  0  0  0  0  0  0  0  0  0  0  0
  1  2  1  0  0  0  0
  1  3  1  0  0  0  0
  1  4  1  0  0  0  0
  1  5  1  0  0  0  0
  5  6  1  0  0  0  0
  5  7  1  0  0  0  0
  5  8  1  0  0  0  0
  8  9  1  0  0  0  0
  9 10  1  0  0  0  0
  9 11  1  0  0  0  0
 11 12  1  0  0  0  0
 11 13  1  0  0  0  0
 11 14  1  0  0  0  0
 14 15  1  0  0  0  0
 14 16  1  0  0  0  0
 14 17  1  0  0  0  0
  9 18  1  0  0  0  0
 18 19  1  0  0  0  0
 18 20  1  0  0  0  0
 18 21  1  0  0  0  0
 21 22  1  0  0  0  0
 21 23  1  0  0  0  0
 21 24  1  0  0  0  0
  8 25  1  0  0  0  0
 25 26  1  0  0  0  0
 25 27  1  0  0  0  0
 25 28  1  0  0  0  0
  8 29  1  0  0  0  0
 29 30  1  0  0  0  0
 29 31  1  0  0  0  0
 29 32  1  0  0  0  0
M  END
> <ChemID>
105770

> <source_casrn>
52897-05-9

> <CAS>
NOCAS_871412

> <SMILES>
CC(C)(CC)C(CC)CC

> <NAME>
4-ETHYL-3,3-DIMETHYLHEXANE

> <preferred_name>


> <iupac>


> <MPID>
24570

> <dsstox_substance_id>
DTXSID80871412

> <Canonical_QSARr>
CC(C)(CC)C(CC)CC

> <InChI_Code_QSARr>
InChI=1S/C10H22/c1-6-9(7-2)10(4,5)8-3/h9H,6-8H2,1-5H3

> <InChI Key_QSARr>
ZRTXVJYJVBTXHE-UHFFFAOYSA-N

> <Salt_Solvent>
?

> <BP>
162.9

$$$$
105774
  -INDIGO-08031720192D

 32 31  0  0  0  0  0  0  0  0999 V2000
    2.1472    1.5035    0.0000 C   0  0  0  0  0  0  0  0  0  0  0  0
    3.7230    1.7813    0.0000 H   0  0  0  0  0  0  0  0  0  0  0  0
    2.6945    3.0070    0.0000 H   0  0  0  0  0  0  0  0  0  0  0  0
    3.1757    0.2779    0.0000 H   0  0  0  0  0  0  0  0  0  0  0  0
    1.6000   -0.0000    0.0000 C   0  0  0  0  0  0  0  0  0  0  0  0
    1.0527   -1.5035    0.0000 H   0  0  0  0  0  0  0  0  0  0  0  0
    0.0001   -0.0000    0.0000 C   0  0  0  0  0  0  0  0  0  0  0  0
   -1.6000   -0.0000    0.0000 C   0  0  0  0  0  0  0  0  0  0  0  0
   -1.3222    1.5757    0.0000 H   0  0  0  0  0  0  0  0  0  0  0  0
   -3.1035    0.5473    0.0000 C   0  0  0  0  0  0  0  0  0  0  0  0
   -4.6295    0.0661    0.0000 H   0  0  0  0  0  0  0  0  0  0  0  0
   -4.0775   -0.7221    0.0000 H   0  0  0  0  0  0  0  0  0  0  0  0
   -3.3814    2.1229    0.0000 C   0  0  0  0  0  0  0  0  0  0  0  0
   -4.8849    2.6702    0.0000 H   0  0  0  0  0  0  0  0  0  0  0  0
   -3.6592    3.6986    0.0000 H   0  0  0  0  0  0  0  0  0  0  0  0
   -2.1557    3.1513    0.0000 H   0  0  0  0  0  0  0  0  0  0  0  0
   -1.8779   -1.5757    0.0000 C   0  0  0  0  0  0  0  0  0  0  0  0
   -3.3814   -2.1229    0.0000 H   0  0  0  0  0  0  0  0  0  0  0  0
   -2.1557   -3.1514    0.0000 H   0  0  0  0  0  0  0  0  0  0  0  0
   -3.1035   -0.5472    0.0000 H   0  0  0  0  0  0  0  0  0  0  0  0
    0.0001    1.6000    0.0000 C   0  0  0  0  0  0  0  0  0  0  0  0
    0.0001    3.2000    0.0000 H   0  0  0  0  0  0  0  0  0  0  0  0
   -1.2256    2.6285    0.0000 H   0  0  0  0  0  0  0  0  0  0  0  0
    1.3856    2.3999    0.0000 H   0  0  0  0  0  0  0  0  0  0  0  0
    0.0001   -1.6000    0.0000 C   0  0  0  0  0  0  0  0  0  0  0  0
    0.0001   -3.2000    0.0000 H   0  0  0  0  0  0  0  0  0  0  0  0
    1.2257   -2.6285    0.0000 H   0  0  0  0  0  0  0  0  0  0  0  0
   -1.3856   -2.4000    0.0000 H   0  0  0  0  0  0  0  0  0  0  0  0
    2.9856   -0.8000    0.0000 C   0  0  0  0  0  0  0  0  0  0  0  0
    4.3713   -1.6000    0.0000 H   0  0  0  0  0  0  0  0  0  0  0  0
    2.9856   -2.4000    0.0000 H   0  0  0  0  0  0  0  0  0  0  0  0
    4.3713   -0.0000    0.0000 H   0  0  0  0  0  0  0  0  0  0  0  0
  1  2  1  0  0  0  0
  1  3  1  0  0  0  0
  1  4  1  0  0  0  0
  1  5  1  0  0  0  0
  5  6  1  0  0  0  0
  5  7  1  0  0  0  0
  7  8  1  0  0  0  0
  8  9  1  0  0  0  0
  8 10  1  0  0  0  0
 10 11  1  0  0  0  0
 10 12  1  0  0  0  0
 10 13  1  0  0  0  0
 13 14  1  0  0  0  0
 13 15  1  0  0  0  0
 13 16  1  0  0  0  0
  8 17  1  0  0  0  0
 17 18  1  0  0  0  0
 17 19  1  0  0  0  0
 17 20  1  0  0  0  0
  7 21  1  0  0  0  0
 21 22  1  0  0  0  0
 21 23  1  0  0  0  0
 21 24  1  0  0  0  0
  7 25  1  0  0  0  0
 25 26  1  0  0  0  0
 25 27  1  0  0  0  0
 25 28  1  0  0  0  0
  5 29  1  0  0  0  0
 29 30  1  0  0  0  0
 29 31  1  0  0  0  0
 29 32  1  0  0  0  0
M  END
> <ChemID>
105774

> <source_casrn>
52897-10-6

> <CAS>
NOCAS_871416

> <SMILES>
CC(C)C(C)(C)C(C)CC

> <NAME>
2,3,3,4-TETRAMETHYLHEXANE

> <preferred_name>


> <iupac>


> <MPID>
24574

> <dsstox_substance_id>
DTXSID20871416

> <Canonical_QSARr>
CC(C)C(C)(C)C(C)CC

> <InChI_Code_QSARr>
InChI=1S/C10H22/c1-7-9(4)10(5,6)8(2)3/h8-9H,7H2,1-6H3

> <InChI Key_QSARr>
HIHSOGFAVTVMCY-UHFFFAOYSA-N

> <Salt_Solvent>
?

> <BP>
164.6

$$$$
105778
  -INDIGO-08031720192D

 32 31  0  0  0  0  0  0  0  0999 V2000
    0.5856   -2.1856    0.0000 C   0  0  0  0  0  0  0  0  0  0  0  0
    0.7280   -3.0016    0.0000 H   0  0  0  0  0  0  0  0  0  0  0  0
    0.0000   -3.2000    0.0000 H   0  0  0  0  0  0  0  0  0  0  0  0
    1.9713   -1.3857    0.0000 H   0  0  0  0  0  0  0  0  0  0  0  0
   -0.8001   -1.3857    0.0000 C   0  0  0  0  0  0  0  0  0  0  0  0
   -2.1856   -0.5857    0.0000 H   0  0  0  0  0  0  0  0  0  0  0  0
    0.0000   -0.0000    0.0000 C   0  0  0  0  0  0  0  0  0  0  0  0
    0.8000    1.3856    0.0000 C   0  0  0  0  0  0  0  0  0  0  0  0
   -0.2809    2.5653    0.0000 H   0  0  0  0  0  0  0  0  0  0  0  0
    0.5911    2.9720    0.0000 H   0  0  0  0  0  0  0  0  0  0  0  0
    2.4000    1.3856    0.0000 C   0  0  0  0  0  0  0  0  0  0  0  0
    3.2001    2.7713    0.0000 H   0  0  0  0  0  0  0  0  0  0  0  0
    4.0000    1.3856    0.0000 H   0  0  0  0  0  0  0  0  0  0  0  0
    1.6000    2.7713    0.0000 H   0  0  0  0  0  0  0  0  0  0  0  0
   -1.3857    0.7999    0.0000 C   0  0  0  0  0  0  0  0  0  0  0  0
   -1.9979    2.2782    0.0000 H   0  0  0  0  0  0  0  0  0  0  0  0
   -1.0393    2.3620    0.0000 H   0  0  0  0  0  0  0  0  0  0  0  0
   -2.7712   -0.0000    0.0000 C   0  0  0  0  0  0  0  0  0  0  0  0
   -4.1569    0.7999    0.0000 H   0  0  0  0  0  0  0  0  0  0  0  0
   -2.7712    1.6000    0.0000 H   0  0  0  0  0  0  0  0  0  0  0  0
   -4.1569   -0.8000    0.0000 H   0  0  0  0  0  0  0  0  0  0  0  0
    1.3857   -0.8000    0.0000 C   0  0  0  0  0  0  0  0  0  0  0  0
    2.3597    0.4694    0.0000 H   0  0  0  0  0  0  0  0  0  0  0  0
    2.9719   -0.5911    0.0000 H   0  0  0  0  0  0  0  0  0  0  0  0
    1.3857   -2.4000    0.0000 C   0  0  0  0  0  0  0  0  0  0  0  0
    1.3857   -4.0000    0.0000 H   0  0  0  0  0  0  0  0  0  0  0  0
    2.7713   -3.2000    0.0000 H   0  0  0  0  0  0  0  0  0  0  0  0
    1.9713   -2.9857    0.0000 H   0  0  0  0  0  0  0  0  0  0  0  0
   -1.6000   -2.7713    0.0000 C   0  0  0  0  0  0  0  0  0  0  0  0
   -2.4000   -4.1569    0.0000 H   0  0  0  0  0  0  0  0  0  0  0  0
   -3.2000   -2.7713    0.0000 H   0  0  0  0  0  0  0  0  0  0  0  0
   -0.8001   -4.1569    0.0000 H   0  0  0  0  0  0  0  0  0  0  0  0
  1  2  1  0  0  0  0
  1  3  1  0  0  0  0
  1  4  1  0  0  0  0
  1  5  1  0  0  0  0
  5  6  1  0  0  0  0
  5  7  1  0  0  0  0
  7  8  1  0  0  0  0
  8  9  1  0  0  0  0
  8 10  1  0  0  0  0
  8 11  1  0  0  0  0
 11 12  1  0  0  0  0
 11 13  1  0  0  0  0
 11 14  1  0  0  0  0
  7 15  1  0  0  0  0
 15 16  1  0  0  0  0
 15 17  1  0  0  0  0
 15 18  1  0  0  0  0
 18 19  1  0  0  0  0
 18 20  1  0  0  0  0
 18 21  1  0  0  0  0
  7 22  1  0  0  0  0
 22 23  1  0  0  0  0
 22 24  1  0  0  0  0
 22 25  1  0  0  0  0
 25 26  1  0  0  0  0
 25 27  1  0  0  0  0
 25 28  1  0  0  0  0
  5 29  1  0  0  0  0
 29 30  1  0  0  0  0
 29 31  1  0  0  0  0
 29 32  1  0  0  0  0
M  END
> <ChemID>
105778

> <source_casrn>
52897-16-2

> <CAS>
NOCAS_871420

> <SMILES>
CC(C)C(CC)(CC)CC

> <NAME>
3,3-DIETHYL-2-METHYLPENTANE

> <preferred_name>


> <iupac>


> <MPID>
24578

> <dsstox_substance_id>
DTXSID10871420

> <Canonical_QSARr>
CC(C)C(CC)(CC)CC

> <InChI_Code_QSARr>
InChI=1S/C10H22/c1-6-10(7-2,8-3)9(4)5/h9H,6-8H2,1-5H3

> <InChI Key_QSARr>
DSSAZLXYIQIXGW-UHFFFAOYSA-N

> <Salt_Solvent>
?

> <BP>
172.0

$$$$
105783
  -INDIGO-08031720192D

 19 18  0  0  0  0  0  0  0  0999 V2000
    0.0000    0.0000    0.0000 C   0  0  0  0  0  0  0  0  0  0  0  0
    0.8000   -1.3856    0.0000 H   0  0  0  0  0  0  0  0  0  0  0  0
   -1.3856   -0.8000    0.0000 C   0  0  0  0  0  0  0  0  0  0  0  0
   -0.7733   -2.2782    0.0000 H   0  0  0  0  0  0  0  0  0  0  0  0
   -1.9979   -2.2782    0.0000 H   0  0  0  0  0  0  0  0  0  0  0  0
   -2.7713    0.0000    0.0000 C   0  0  0  0  0  0  0  0  0  0  0  0
   -4.1570    0.8000    0.0000 C   0  0  0  0  0  0  0  0  0  0  0  0
   -5.5426    1.6000    0.0000 C   0  0  0  0  0  0  0  0  0  0  0  0
   -6.9282    2.4000    0.0000 H   0  0  0  0  0  0  0  0  0  0  0  0
   -6.9282    0.8000    0.0000 H   0  0  0  0  0  0  0  0  0  0  0  0
   -5.5426    3.2000    0.0000 H   0  0  0  0  0  0  0  0  0  0  0  0
    1.3857    0.8000    0.0000 C   0  0  0  0  0  0  0  0  0  0  0  0
    2.7713    1.6000    0.0000 H   0  0  0  0  0  0  0  0  0  0  0  0
    2.7713    0.0000    0.0000 H   0  0  0  0  0  0  0  0  0  0  0  0
    1.3857    2.4000    0.0000 H   0  0  0  0  0  0  0  0  0  0  0  0
   -0.8001    1.3856    0.0000 C   0  0  0  0  0  0  0  0  0  0  0  0
   -1.6000    2.7713    0.0000 H   0  0  0  0  0  0  0  0  0  0  0  0
   -2.4000    1.3856    0.0000 H   0  0  0  0  0  0  0  0  0  0  0  0
    0.0000    2.7713    0.0000 H   0  0  0  0  0  0  0  0  0  0  0  0
  1  2  1  0  0  0  0
  1  3  1  0  0  0  0
  3  4  1  0  0  0  0
  3  5  1  0  0  0  0
  3  6  1  0  0  0  0
  6  7  3  0  0  0  0
  7  8  1  0  0  0  0
  8  9  1  0  0  0  0
  8 10  1  0  0  0  0
  8 11  1  0  0  0  0
  1 12  1  0  0  0  0
 12 13  1  0  0  0  0
 12 14  1  0  0  0  0
 12 15  1  0  0  0  0
  1 16  1  0  0  0  0
 16 17  1  0  0  0  0
 16 18  1  0  0  0  0
 16 19  1  0  0  0  0
M  END
> <ChemID>
105783

> <source_casrn>
53566-37-3

> <CAS>
53566-37-3

> <SMILES>
CC#CCC(C)C

> <NAME>
2-HEXYNE, 5-METHYL-

> <preferred_name>
2-Hexyne, 5-methyl-

> <iupac>
5-methylhex-2-yne

> <MPID>
24582

> <dsstox_substance_id>
DTXSID30201785

> <Canonical_QSARr>
CC#CCC(C)C

> <InChI_Code_QSARr>
InChI=1S/C7H12/c1-4-5-6-7(2)3/h7H,6H2,1-3H3

> <InChI Key_QSARr>
SVGAHRUSRQTQES-UHFFFAOYSA-N

> <Salt_Solvent>
?

> <BP>
102.5

$$$$
105787
  -INDIGO-08031720192D

 29 28  0  0  0  0  0  0  0  0999 V2000
   -0.0001    3.2000    0.0000 O   0  0  0  0  0  0  0  0  0  0  0  0
   -1.3856    2.4001    0.0000 C   0  0  0  0  0  0  0  0  0  0  0  0
   -1.3856    0.8001    0.0000 C   0  0  0  0  0  0  0  0  0  0  0  0
    0.0001    0.0000    0.0000 C   0  0  0  0  0  0  0  0  0  0  0  0
    1.3856    0.8001    0.0000 C   0  0  0  0  0  0  0  0  0  0  0  0
    0.7734    2.2782    0.0000 H   0  0  0  0  0  0  0  0  0  0  0  0
    1.9979    2.2782    0.0000 H   0  0  0  0  0  0  0  0  0  0  0  0
    2.7712    0.0000    0.0000 C   0  0  0  0  0  0  0  0  0  0  0  0
    3.3836   -1.4782    0.0000 H   0  0  0  0  0  0  0  0  0  0  0  0
    2.1589   -1.4782    0.0000 H   0  0  0  0  0  0  0  0  0  0  0  0
    4.1569    0.8001    0.0000 C   0  0  0  0  0  0  0  0  0  0  0  0
    5.5426    1.6000    0.0000 H   0  0  0  0  0  0  0  0  0  0  0  0
    5.5426    0.0000    0.0000 H   0  0  0  0  0  0  0  0  0  0  0  0
    4.1569    2.4001    0.0000 H   0  0  0  0  0  0  0  0  0  0  0  0
    0.0001   -1.6000    0.0000 C   0  0  0  0  0  0  0  0  0  0  0  0
    0.0001   -3.2000    0.0000 H   0  0  0  0  0  0  0  0  0  0  0  0
   -1.3856   -2.4001    0.0000 H   0  0  0  0  0  0  0  0  0  0  0  0
    1.3856   -2.4001    0.0000 H   0  0  0  0  0  0  0  0  0  0  0  0
   -2.7712    0.0000    0.0000 C   0  0  0  0  0  0  0  0  0  0  0  0
   -2.1589   -1.4782    0.0000 H   0  0  0  0  0  0  0  0  0  0  0  0
   -3.3836   -1.4782    0.0000 H   0  0  0  0  0  0  0  0  0  0  0  0
   -4.1569    0.7999    0.0000 C   0  0  0  0  0  0  0  0  0  0  0  0
   -5.5426    1.6000    0.0000 H   0  0  0  0  0  0  0  0  0  0  0  0
   -5.5426    0.0000    0.0000 H   0  0  0  0  0  0  0  0  0  0  0  0
   -4.1569   -0.8001    0.0000 H   0  0  0  0  0  0  0  0  0  0  0  0
   -2.7712    3.2000    0.0000 C   0  0  0  0  0  0  0  0  0  0  0  0
   -2.7712    4.8000    0.0000 H   0  0  0  0  0  0  0  0  0  0  0  0
   -4.1569    4.0001    0.0000 H   0  0  0  0  0  0  0  0  0  0  0  0
   -1.3856    4.0001    0.0000 H   0  0  0  0  0  0  0  0  0  0  0  0
  1  2  2  0  0  0  0
  2  3  1  0  0  0  0
  3  4  2  0  0  0  0
  4  5  1  0  0  0  0
  5  6  1  0  0  0  0
  5  7  1  0  0  0  0
  5  8  1  0  0  0  0
  8  9  1  0  0  0  0
  8 10  1  0  0  0  0
  8 11  1  0  0  0  0
 11 12  1  0  0  0  0
 11 13  1  0  0  0  0
 11 14  1  0  0  0  0
  4 15  1  0  0  0  0
 15 16  1  0  0  0  0
 15 17  1  0  0  0  0
 15 18  1  0  0  0  0
  3 19  1  0  0  0  0
 19 20  1  0  0  0  0
 19 21  1  0  0  0  0
 19 22  1  0  0  0  0
 22 23  1  0  0  0  0
 22 24  1  0  0  0  0
 22 25  1  0  0  0  0
  2 26  1  0  0  0  0
 26 27  1  0  0  0  0
 26 28  1  0  0  0  0
 26 29  1  0  0  0  0
M  END
> <ChemID>
105787

> <source_casrn>
54244-90-5

> <CAS>
54244-90-5

> <SMILES>
CC(CCC)=C(CC)C(C)=O

> <NAME>
3-HEPTEN-2-ONE, 3-ETHYL-4-METHYL-

> <preferred_name>
3-Hepten-2-one, 3-ethyl-4-methyl-

> <iupac>
C10H18O

> <MPID>
24586

> <dsstox_substance_id>
DTXSID30336965

> <Canonical_QSARr>
CC(CCC)=C(CC)C(C)=O

> <InChI_Code_QSARr>
InChI=1S/C10H18O/c1-5-7-8(3)10(6-2)9(4)11/h5-7H2,1-4H3/b10-8-

> <InChI Key_QSARr>
PUHMMKUISPITSC-NTMALXAHSA-N

> <Salt_Solvent>
?

> <BP>
190.0

$$$$
105791
  -INDIGO-08031720192D

 19 18  0  0  0  0  0  0  0  0999 V2000
    1.3857    2.4000    0.0000 O   0  0  0  0  0  0  0  0  0  0  0  0
    1.3857    0.8000    0.0000 C   0  0  0  0  0  0  0  0  0  0  0  0
    2.7712    0.0000    0.0000 O   0  0  0  0  0  0  0  0  0  0  0  0
    4.1569    0.8000    0.0000 C   0  0  0  0  0  0  0  0  0  0  0  0
    4.7692    2.2782    0.0000 H   0  0  0  0  0  0  0  0  0  0  0  0
    3.5446    2.2782    0.0000 H   0  0  0  0  0  0  0  0  0  0  0  0
    5.5425    0.0000    0.0000 C   0  0  0  0  0  0  0  0  0  0  0  0
    6.9282   -0.8000    0.0000 H   0  0  0  0  0  0  0  0  0  0  0  0
    6.9282    0.8000    0.0000 H   0  0  0  0  0  0  0  0  0  0  0  0
    5.5425   -1.6000    0.0000 Cl  0  0  0  0  0  0  0  0  0  0  0  0
    0.0001    0.0000    0.0000 C   0  0  0  0  0  0  0  0  0  0  0  0
   -0.6123   -1.4782    0.0000 H   0  0  0  0  0  0  0  0  0  0  0  0
    0.6122   -1.4782    0.0000 H   0  0  0  0  0  0  0  0  0  0  0  0
   -1.3856    0.8000    0.0000 C   0  0  0  0  0  0  0  0  0  0  0  0
   -1.3856    2.4000    0.0000 O   0  0  0  0  0  0  0  0  0  0  0  0
   -2.7713    0.0000    0.0000 C   0  0  0  0  0  0  0  0  0  0  0  0
   -4.1569   -0.8000    0.0000 H   0  0  0  0  0  0  0  0  0  0  0  0
   -4.1569    0.8000    0.0000 H   0  0  0  0  0  0  0  0  0  0  0  0
   -2.7713   -1.6000    0.0000 H   0  0  0  0  0  0  0  0  0  0  0  0
  1  2  2  0  0  0  0
  2  3  1  0  0  0  0
  3  4  1  0  0  0  0
  4  5  1  0  0  0  0
  4  6  1  0  0  0  0
  4  7  1  0  0  0  0
  7  8  1  0  0  0  0
  7  9  1  0  0  0  0
  7 10  1  0  0  0  0
  2 11  1  0  0  0  0
 11 12  1  0  0  0  0
 11 13  1  0  0  0  0
 11 14  1  0  0  0  0
 14 15  2  0  0  0  0
 14 16  1  0  0  0  0
 16 17  1  0  0  0  0
 16 18  1  0  0  0  0
 16 19  1  0  0  0  0
M  END
> <ChemID>
105791

> <source_casrn>
54527-68-3

> <CAS>
54527-68-3

> <SMILES>
CC(=O)CC(=O)OCCCl

> <NAME>
Butanoic acid, 3-oxo-, 2-chloroethyl ester

> <preferred_name>
2-Chloroethyl acetoacetate

> <iupac>
2-Chloroethyl 3-oxobutanoate

> <MPID>
24590

> <dsstox_substance_id>
DTXSID3068962

> <Canonical_QSARr>
CC(=O)CC(=O)OCCCl

> <InChI_Code_QSARr>
InChI=1S/C6H9ClO3/c1-5(8)4-6(9)10-3-2-7/h2-4H2,1H3

> <InChI Key_QSARr>
JAEUQHNZRROYID-UHFFFAOYSA-N

> <Salt_Solvent>
?

> <BP>
198.0

$$$$
105795
  -INDIGO-08031720192D

 29 30  0  0  0  0  0  0  0  0999 V2000
   -3.2000    2.7713    0.0000 O   0  0  0  0  0  0  0  0  0  0  0  0
   -2.4000    1.3857    0.0000 C   0  0  0  0  0  0  0  0  0  0  0  0
   -0.8000    1.3857    0.0000 C   0  0  0  0  0  0  0  0  0  0  0  0
    0.0000    2.7713    0.0000 H   0  0  0  0  0  0  0  0  0  0  0  0
    0.0000    0.0000    0.0000 C   0  0  0  0  0  0  0  0  0  0  0  0
    1.6000    0.0000    0.0000 C   0  0  0  0  0  0  0  0  0  0  0  0
    2.4000    1.3857    0.0000 C   0  0  0  0  0  0  0  0  0  0  0  0
    1.6000    2.7713    0.0000 H   0  0  0  0  0  0  0  0  0  0  0  0
    4.0000    1.3857    0.0000 C   0  0  0  0  0  0  0  0  0  0  0  0
    4.8000    2.7713    0.0000 H   0  0  0  0  0  0  0  0  0  0  0  0
    4.8000    0.0000    0.0000 C   0  0  0  0  0  0  0  0  0  0  0  0
    6.4000    0.0000    0.0000 H   0  0  0  0  0  0  0  0  0  0  0  0
    4.0000   -1.3856    0.0000 C   0  0  0  0  0  0  0  0  0  0  0  0
    4.8000   -2.7713    0.0000 H   0  0  0  0  0  0  0  0  0  0  0  0
    2.4000   -1.3856    0.0000 C   0  0  0  0  0  0  0  0  0  0  0  0
    1.6000   -2.7713    0.0000 H   0  0  0  0  0  0  0  0  0  0  0  0
   -0.8000   -1.3856    0.0000 C   0  0  0  0  0  0  0  0  0  0  0  0
    0.0000   -2.7713    0.0000 H   0  0  0  0  0  0  0  0  0  0  0  0
   -2.4000   -1.3856    0.0000 C   0  0  0  0  0  0  0  0  0  0  0  0
   -3.2000   -2.7713    0.0000 H   0  0  0  0  0  0  0  0  0  0  0  0
   -3.2000    0.0000    0.0000 C   0  0  0  0  0  0  0  0  0  0  0  0
   -4.8000    0.0000    0.0000 H   0  0  0  0  0  0  0  0  0  0  0  0
   -4.8000    2.7713    0.0000 C   0  0  0  0  0  0  0  0  0  0  0  0
   -6.0694    1.7972    0.0000 H   0  0  0  0  0  0  0  0  0  0  0  0
   -5.0088    1.1850    0.0000 H   0  0  0  0  0  0  0  0  0  0  0  0
   -5.6000    4.1570    0.0000 C   0  0  0  0  0  0  0  0  0  0  0  0
   -6.4000    5.5426    0.0000 H   0  0  0  0  0  0  0  0  0  0  0  0
   -7.2000    4.1570    0.0000 H   0  0  0  0  0  0  0  0  0  0  0  0
   -4.8000    5.5426    0.0000 H   0  0  0  0  0  0  0  0  0  0  0  0
  1  2  1  0  0  0  0
  2  3  1  0  0  0  0
  3  4  1  0  0  0  0
  3  5  2  0  0  0  0
  5  6  1  0  0  0  0
  6  7  1  0  0  0  0
  7  8  1  0  0  0  0
  7  9  2  0  0  0  0
  9 10  1  0  0  0  0
  9 11  1  0  0  0  0
 11 12  1  0  0  0  0
 11 13  2  0  0  0  0
 13 14  1  0  0  0  0
 13 15  1  0  0  0  0
 15  6  2  0  0  0  0
 15 16  1  0  0  0  0
  5 17  1  0  0  0  0
 17 18  1  0  0  0  0
 17 19  2  0  0  0  0
 19 20  1  0  0  0  0
 19 21  1  0  0  0  0
 21  2  2  0  0  0  0
 21 22  1  0  0  0  0
  1 23  1  0  0  0  0
 23 24  1  0  0  0  0
 23 25  1  0  0  0  0
 23 26  1  0  0  0  0
 26 27  1  0  0  0  0
 26 28  1  0  0  0  0
 26 29  1  0  0  0  0
M  END
> <ChemID>
105795

> <source_casrn>
54852-73-2

> <CAS>
54852-73-2

> <SMILES>
CCOc1cc(ccc1)-c1ccccc1

> <NAME>
1,1'-BIPHENYL, 3-ETHOXY-

> <preferred_name>
3-Ethoxy-1,1'-biphenyl

> <iupac>
C14H14O

> <MPID>
24594

> <dsstox_substance_id>
DTXSID60323388

> <Canonical_QSARr>
CCOc1cc(ccc1)-c1ccccc1

> <InChI_Code_QSARr>
InChI=1S/C14H14O/c1-2-15-14-10-6-9-13(11-14)12-7-4-3-5-8-12/h3-11H,2H2,1H3

> <InChI Key_QSARr>
WCZZIGCDPVIDGI-UHFFFAOYSA-N

> <Salt_Solvent>
?

> <BP>
305.0

$$$$
105799
  -INDIGO-08031720192D

 43 44  0  0  0  0  0  0  0  0999 V2000
    0.0000    0.0000    0.0000 C   0  0  0  0  0  0  0  0  0  0  0  0
    0.3250   -0.7071    0.0000 H   0  0  0  0  0  0  0  0  0  0  0  0
    1.5756    0.2778    0.0000 C   0  0  0  0  0  0  0  0  0  0  0  0
    0.7758    1.6635    0.0000 H   0  0  0  0  0  0  0  0  0  0  0  0
    1.5756   -1.3222    0.0000 C   0  0  0  0  0  0  0  0  0  0  0  0
   -0.0243   -1.3222    0.0000 H   0  0  0  0  0  0  0  0  0  0  0  0
    1.0284   -2.8257    0.0000 H   0  0  0  0  0  0  0  0  0  0  0  0
    2.9613   -2.1222    0.0000 C   0  0  0  0  0  0  0  0  0  0  0  0
    1.9328   -3.3479    0.0000 H   0  0  0  0  0  0  0  0  0  0  0  0
    3.9897   -3.3479    0.0000 H   0  0  0  0  0  0  0  0  0  0  0  0
    4.3469   -1.3222    0.0000 C   0  0  0  0  0  0  0  0  0  0  0  0
    4.8941   -2.8257    0.0000 H   0  0  0  0  0  0  0  0  0  0  0  0
    5.9227   -1.0444    0.0000 H   0  0  0  0  0  0  0  0  0  0  0  0
    4.3469    0.2778    0.0000 C   0  0  0  0  0  0  0  0  0  0  0  0
    5.9227    0.0000    0.0000 H   0  0  0  0  0  0  0  0  0  0  0  0
    4.8941    1.7813    0.0000 H   0  0  0  0  0  0  0  0  0  0  0  0
    2.9613    1.0778    0.0000 C   0  0  0  0  0  0  0  0  0  0  0  0
    3.9899    2.3035    0.0000 H   0  0  0  0  0  0  0  0  0  0  0  0
    1.9328    2.3035    0.0000 H   0  0  0  0  0  0  0  0  0  0  0  0
   -1.5036   -0.5473    0.0000 C   0  0  0  0  0  0  0  0  0  0  0  0
   -1.7813    1.0285    0.0000 H   0  0  0  0  0  0  0  0  0  0  0  0
   -0.7036   -1.9328    0.0000 C   0  0  0  0  0  0  0  0  0  0  0  0
    0.0326   -1.6801    0.0000 H   0  0  0  0  0  0  0  0  0  0  0  0
    0.3250   -3.1586    0.0000 H   0  0  0  0  0  0  0  0  0  0  0  0
   -1.5036   -3.3186    0.0000 C   0  0  0  0  0  0  0  0  0  0  0  0
    0.0000   -3.8657    0.0000 H   0  0  0  0  0  0  0  0  0  0  0  0
   -1.7813   -4.8942    0.0000 H   0  0  0  0  0  0  0  0  0  0  0  0
   -3.1035   -3.3186    0.0000 C   0  0  0  0  0  0  0  0  0  0  0  0
   -2.8257   -4.8942    0.0000 H   0  0  0  0  0  0  0  0  0  0  0  0
   -4.6071   -3.8657    0.0000 H   0  0  0  0  0  0  0  0  0  0  0  0
   -3.9035   -1.9328    0.0000 C   0  0  0  0  0  0  0  0  0  0  0  0
   -5.1292   -2.9614    0.0000 H   0  0  0  0  0  0  0  0  0  0  0  0
   -5.1292   -0.9045    0.0000 H   0  0  0  0  0  0  0  0  0  0  0  0
   -3.1035   -0.5473    0.0000 C   0  0  0  0  0  0  0  0  0  0  0  0
   -4.6071    0.0000    0.0000 H   0  0  0  0  0  0  0  0  0  0  0  0
   -2.8257    1.0285    0.0000 H   0  0  0  0  0  0  0  0  0  0  0  0
   -0.5472    1.5035    0.0000 C   0  0  0  0  0  0  0  0  0  0  0  0
    0.7221    2.4775    0.0000 H   0  0  0  0  0  0  0  0  0  0  0  0
   -0.0661    3.0295    0.0000 H   0  0  0  0  0  0  0  0  0  0  0  0
   -2.1230    1.7813    0.0000 C   0  0  0  0  0  0  0  0  0  0  0  0
   -2.6702    3.2849    0.0000 H   0  0  0  0  0  0  0  0  0  0  0  0
   -3.6986    2.0591    0.0000 H   0  0  0  0  0  0  0  0  0  0  0  0
   -1.0945    3.0070    0.0000 H   0  0  0  0  0  0  0  0  0  0  0  0
  1  2  1  0  0  0  0
  1  3  1  0  0  0  0
  3  4  1  0  0  0  0
  3  5  1  0  0  0  0
  5  6  1  0  0  0  0
  5  7  1  0  0  0  0
  5  8  1  0  0  0  0
  8  9  1  0  0  0  0
  8 10  1  0  0  0  0
  8 11  1  0  0  0  0
 11 12  1  0  0  0  0
 11 13  1  0  0  0  0
 11 14  1  0  0  0  0
 14 15  1  0  0  0  0
 14 16  1  0  0  0  0
 14 17  1  0  0  0  0
 17  3  1  0  0  0  0
 17 18  1  0  0  0  0
 17 19  1  0  0  0  0
  1 20  1  0  0  0  0
 20 21  1  0  0  0  0
 20 22  1  0  0  0  0
 22 23  1  0  0  0  0
 22 24  1  0  0  0  0
 22 25  1  0  0  0  0
 25 26  1  0  0  0  0
 25 27  1  0  0  0  0
 25 28  1  0  0  0  0
 28 29  1  0  0  0  0
 28 30  1  0  0  0  0
 28 31  1  0  0  0  0
 31 32  1  0  0  0  0
 31 33  1  0  0  0  0
 31 34  1  0  0  0  0
 34 20  1  0  0  0  0
 34 35  1  0  0  0  0
 34 36  1  0  0  0  0
  1 37  1  0  0  0  0
 37 38  1  0  0  0  0
 37 39  1  0  0  0  0
 37 40  1  0  0  0  0
 40 41  1  0  0  0  0
 40 42  1  0  0  0  0
 40 43  1  0  0  0  0
M  END
> <ChemID>
105799

> <source_casrn>
54934-91-7

> <CAS>
54934-91-7

> <SMILES>
CCC(C1CCCCC1)C1CCCCC1

> <NAME>
CYCLOHEXANE, 1,1'-PROPYLIDENEBIS-

> <preferred_name>
1,1-Dicyclohexylpropane

> <iupac>
1-cyclohexylpropylcyclohexane

> <MPID>
24598

> <dsstox_substance_id>
DTXSID20203450

> <Canonical_QSARr>
CCC(C1CCCCC1)C1CCCCC1

> <InChI_Code_QSARr>
InChI=1S/C15H28/c1-2-15(13-9-5-3-6-10-13)14-11-7-4-8-12-14/h13-15H,2-12H2,1H3

> <InChI Key_QSARr>
ROFWOEQFASWFTK-UHFFFAOYSA-N

> <Salt_Solvent>
?

> <BP>
283.6

$$$$
105804
  -INDIGO-08031720192D

 37 38  0  0  0  0  0  0  0  0999 V2000
    0.0001    0.0000    0.0000 C   0  0  0  0  0  0  0  0  0  0  0  0
    1.5757   -0.2779    0.0000 C   0  0  0  0  0  0  0  0  0  0  0  0
    2.1230   -1.7813    0.0000 C   0  0  0  0  0  0  0  0  0  0  0  0
    1.0945   -3.0070    0.0000 H   0  0  0  0  0  0  0  0  0  0  0  0
    3.6986   -2.0592    0.0000 N   0  0  0  0  0  0  0  0  0  0  0  0
    4.7272   -0.8335    0.0000 C   0  0  0  0  0  0  0  0  0  0  0  0
    6.3028   -1.1113    0.0000 H   0  0  0  0  0  0  0  0  0  0  0  0
    4.1798    0.6700    0.0000 N   0  0  0  0  0  0  0  0  0  0  0  0
    2.6042    0.9478    0.0000 C   0  0  0  0  0  0  0  0  0  0  0  0
    3.3299    1.4694    0.0000 H   0  0  0  0  0  0  0  0  0  0  0  0
   -1.5999    0.0000    0.0000 C   0  0  0  0  0  0  0  0  0  0  0  0
   -2.4001    1.3857    0.0000 C   0  0  0  0  0  0  0  0  0  0  0  0
   -1.5999    2.7713    0.0000 H   0  0  0  0  0  0  0  0  0  0  0  0
   -4.0001    1.3857    0.0000 C   0  0  0  0  0  0  0  0  0  0  0  0
   -4.8000    2.7713    0.0000 H   0  0  0  0  0  0  0  0  0  0  0  0
   -4.8000    0.0000    0.0000 C   0  0  0  0  0  0  0  0  0  0  0  0
   -6.4001    0.0000    0.0000 O   0  0  0  0  0  0  0  0  0  0  0  0
   -7.2000   -1.3856    0.0000 C   0  0  0  0  0  0  0  0  0  0  0  0
   -8.8000   -1.3856    0.0000 F   0  0  0  0  0  0  0  0  0  0  0  0
   -8.0001   -2.7713    0.0000 F   0  0  0  0  0  0  0  0  0  0  0  0
   -8.0001    0.0000    0.0000 F   0  0  0  0  0  0  0  0  0  0  0  0
   -4.0001   -1.3856    0.0000 C   0  0  0  0  0  0  0  0  0  0  0  0
   -4.8000   -2.7713    0.0000 H   0  0  0  0  0  0  0  0  0  0  0  0
   -2.4001   -1.3856    0.0000 C   0  0  0  0  0  0  0  0  0  0  0  0
   -2.1221   -2.9613    0.0000 H   0  0  0  0  0  0  0  0  0  0  0  0
    0.2778    1.5757    0.0000 C   0  0  0  0  0  0  0  0  0  0  0  0
   -1.3222    1.5757    0.0000 H   0  0  0  0  0  0  0  0  0  0  0  0
    0.2778    3.1757    0.0000 C   0  0  0  0  0  0  0  0  0  0  0  0
    0.2778    4.7757    0.0000 H   0  0  0  0  0  0  0  0  0  0  0  0
    1.6635    3.9757    0.0000 H   0  0  0  0  0  0  0  0  0  0  0  0
   -1.1077    3.9757    0.0000 H   0  0  0  0  0  0  0  0  0  0  0  0
    1.8778    1.5757    0.0000 C   0  0  0  0  0  0  0  0  0  0  0  0
    2.9063    2.8014    0.0000 H   0  0  0  0  0  0  0  0  0  0  0  0
    2.0569    2.4514    0.0000 H   0  0  0  0  0  0  0  0  0  0  0  0
    2.4252    0.0722    0.0000 H   0  0  0  0  0  0  0  0  0  0  0  0
   -0.2778   -1.5756    0.0000 O   0  0  0  0  0  0  0  0  0  0  0  0
   -1.7813   -2.1229    0.0000 H   0  0  0  0  0  0  0  0  0  0  0  0
  1  2  1  0  0  0  0
  2  3  1  0  0  0  0
  3  4  1  0  0  0  0
  3  5  2  0  0  0  0
  5  6  1  0  0  0  0
  6  7  1  0  0  0  0
  6  8  2  0  0  0  0
  8  9  1  0  0  0  0
  9  2  2  0  0  0  0
  9 10  1  0  0  0  0
  1 11  1  0  0  0  0
 11 12  1  0  0  0  0
 12 13  1  0  0  0  0
 12 14  2  0  0  0  0
 14 15  1  0  0  0  0
 14 16  1  0  0  0  0
 16 17  1  0  0  0  0
 17 18  1  0  0  0  0
 18 19  1  0  0  0  0
 18 20  1  0  0  0  0
 18 21  1  0  0  0  0
 16 22  2  0  0  0  0
 22 23  1  0  0  0  0
 22 24  1  0  0  0  0
 24 11  2  0  0  0  0
 24 25  1  0  0  0  0
  1 26  1  0  0  0  0
 26 27  1  0  0  0  0
 26 28  1  0  0  0  0
 28 29  1  0  0  0  0
 28 30  1  0  0  0  0
 28 31  1  0  0  0  0
 26 32  1  0  0  0  0
 32 33  1  0  0  0  0
 32 34  1  0  0  0  0
 32 35  1  0  0  0  0
  1 36  1  0  0  0  0
 36 37  1  0  0  0  0
M  END
> <ChemID>
105804

> <source_casrn>
56425-91-3

> <CAS>
56425-91-3

> <SMILES>
CC(C)C(O)(c1ccc(cc1)OC(F)(F)F)c1c[n]c[n]c1

> <NAME>
FLURPRIMIDOL

> <preferred_name>
Flurprimidol

> <iupac>
2-methyl-1-(pyrimidin-5-yl)-1-[4-(trifluoromethoxy)phenyl]propan-1-ol

> <MPID>
24603

> <dsstox_substance_id>
DTXSID3024108

> <Canonical_QSARr>
CC(C)C(O)(c1ccc(cc1)OC(F)(F)F)c1c[n]c[n]c1

> <InChI_Code_QSARr>
InChI=1S/C15H15F3N2O2/c1-10(2)14(21,12-7-19-9-20-8-12)11-3-5-13(6-4-11)22-15(16,17)18/h3-10,21H,1-2H3

> <InChI Key_QSARr>
VEVZCONIUDBCDC-UHFFFAOYSA-N

> <Salt_Solvent>
?

> <BP>
264.0

$$$$
105809
  -INDIGO-08031720192D

 15 15  0  0  0  0  0  0  0  0999 V2000
    0.0000   -0.0000    0.0000 C   0  0  0  0  0  0  0  0  0  0  0  0
   -0.8001    1.3856    0.0000 C   0  0  0  0  0  0  0  0  0  0  0  0
    0.0000    2.7713    0.0000 H   0  0  0  0  0  0  0  0  0  0  0  0
   -2.4001    1.3856    0.0000 C   0  0  0  0  0  0  0  0  0  0  0  0
   -3.2000    2.7713    0.0000 H   0  0  0  0  0  0  0  0  0  0  0  0
   -3.2000   -0.0000    0.0000 C   0  0  0  0  0  0  0  0  0  0  0  0
   -4.8000   -0.0000    0.0000 Cl  0  0  0  0  0  0  0  0  0  0  0  0
   -2.4001   -1.3856    0.0000 C   0  0  0  0  0  0  0  0  0  0  0  0
   -3.2000   -2.7713    0.0000 Cl  0  0  0  0  0  0  0  0  0  0  0  0
   -0.8001   -1.3856    0.0000 C   0  0  0  0  0  0  0  0  0  0  0  0
    0.0000   -2.7713    0.0000 Cl  0  0  0  0  0  0  0  0  0  0  0  0
    1.6000   -0.0000    0.0000 C   0  0  0  0  0  0  0  0  0  0  0  0
    3.2000   -0.0000    0.0000 H   0  0  0  0  0  0  0  0  0  0  0  0
    2.4001   -1.3856    0.0000 Cl  0  0  0  0  0  0  0  0  0  0  0  0
    2.4001    1.3856    0.0000 Cl  0  0  0  0  0  0  0  0  0  0  0  0
  1  2  1  0  0  0  0
  2  3  1  0  0  0  0
  2  4  2  0  0  0  0
  4  5  1  0  0  0  0
  4  6  1  0  0  0  0
  6  7  1  0  0  0  0
  6  8  2  0  0  0  0
  8  9  1  0  0  0  0
  8 10  1  0  0  0  0
 10  1  2  0  0  0  0
 10 11  1  0  0  0  0
  1 12  1  0  0  0  0
 12 13  1  0  0  0  0
 12 14  1  0  0  0  0
 12 15  1  0  0  0  0
M  END
> <ChemID>
105809

> <source_casrn>
56961-82-1

> <CAS>
NOCAS_871434

> <SMILES>
Clc1ccc(C(Cl)Cl)c(Cl)c1Cl

> <NAME>
1-(Dichloromethyl)-2,3,4-trichlorobenzene

> <preferred_name>


> <iupac>


> <MPID>
24607

> <dsstox_substance_id>
DTXSID00871434

> <Canonical_QSARr>
Clc1ccc(C(Cl)Cl)c(Cl)c1Cl

> <InChI_Code_QSARr>
InChI=1S/C7H3Cl5/c8-4-2-1-3(7(11)12)5(9)6(4)10/h1-2,7H

> <InChI Key_QSARr>
GTQJFLXWDUNQKB-UHFFFAOYSA-N

> <Salt_Solvent>
?

> <BP>
278.0

$$$$
105813
  -INDIGO-08031720192D

 15 16  0  0  0  0  0  0  0  0999 V2000
   -1.3857    4.0000    0.0000 Cl  0  0  0  0  0  0  0  0  0  0  0  0
   -1.3857    2.4000    0.0000 C   0  0  0  0  0  0  0  0  0  0  0  0
   -0.0000    1.6000    0.0000 C   0  0  0  0  0  0  0  0  0  0  0  0
   -0.0000    0.0000    0.0000 C   0  0  0  0  0  0  0  0  0  0  0  0
    1.5217   -0.4944    0.0000 C   0  0  0  0  0  0  0  0  0  0  0  0
    2.4621    0.8000    0.0000 O   0  0  0  0  0  0  0  0  0  0  0  0
    1.5217    2.0944    0.0000 C   0  0  0  0  0  0  0  0  0  0  0  0
    2.0161    3.6161    0.0000 O   0  0  0  0  0  0  0  0  0  0  0  0
    2.0161   -2.0161    0.0000 O   0  0  0  0  0  0  0  0  0  0  0  0
   -1.3857   -0.8000    0.0000 C   0  0  0  0  0  0  0  0  0  0  0  0
   -1.3857   -2.4000    0.0000 H   0  0  0  0  0  0  0  0  0  0  0  0
   -2.7713    0.0000    0.0000 C   0  0  0  0  0  0  0  0  0  0  0  0
   -4.1569   -0.8000    0.0000 H   0  0  0  0  0  0  0  0  0  0  0  0
   -2.7713    1.6000    0.0000 C   0  0  0  0  0  0  0  0  0  0  0  0
   -4.1569    2.4000    0.0000 Cl  0  0  0  0  0  0  0  0  0  0  0  0
  1  2  1  0  0  0  0
  2  3  1  0  0  0  0
  3  4  2  0  0  0  0
  4  5  1  0  0  0  0
  5  6  1  0  0  0  0
  6  7  1  0  0  0  0
  7  3  1  0  0  0  0
  7  8  2  0  0  0  0
  5  9  2  0  0  0  0
  4 10  1  0  0  0  0
 10 11  1  0  0  0  0
 10 12  2  0  0  0  0
 12 13  1  0  0  0  0
 12 14  1  0  0  0  0
 14  2  2  0  0  0  0
 14 15  1  0  0  0  0
M  END
> <ChemID>
105813

> <source_casrn>
56962-07-3

> <CAS>
52005-46-6

> <SMILES>
O=C1OC(=O)c2c1ccc(Cl)c2Cl

> <NAME>
4,5-Dichloro-isobenzofuran-1,3-dione

> <preferred_name>
Dichlorophthalic anhydride

> <iupac>
4,5-dichloro-2-benzofuran-1,3-dione

> <MPID>
24611

> <dsstox_substance_id>
DTXSID70199975

> <Canonical_QSARr>
O=C1OC(=O)c2c1ccc(Cl)c2Cl

> <InChI_Code_QSARr>
InChI=1S/C8H2Cl2O3/c9-4-2-1-3-5(6(4)10)8(12)13-7(3)11/h1-2H

> <InChI Key_QSARr>
GAIPRQZXSYSCRD-UHFFFAOYSA-N

> <Salt_Solvent>
?

> <BP>
329.0

$$$$
105819
  -INDIGO-08031720192D

 12 11  0  0  0  0  0  0  0  0999 V2000
   -2.7713    1.6000    0.0000 Cl  0  0  0  0  0  0  0  0  0  0  0  0
   -2.7713   -0.0000    0.0000 C   0  0  0  0  0  0  0  0  0  0  0  0
   -1.3856   -0.8000    0.0000 O   0  0  0  0  0  0  0  0  0  0  0  0
    0.0000    0.0000    0.0000 C   0  0  0  0  0  0  0  0  0  0  0  0
    1.3856   -0.8000    0.0000 C   0  0  0  0  0  0  0  0  0  0  0  0
    2.7713   -1.6000    0.0000 H   0  0  0  0  0  0  0  0  0  0  0  0
    1.3856   -2.4000    0.0000 H   0  0  0  0  0  0  0  0  0  0  0  0
    2.7713    0.0000    0.0000 H   0  0  0  0  0  0  0  0  0  0  0  0
    0.0000    1.6000    0.0000 C   0  0  0  0  0  0  0  0  0  0  0  0
   -1.3856    2.4000    0.0000 H   0  0  0  0  0  0  0  0  0  0  0  0
    1.3856    2.4000    0.0000 H   0  0  0  0  0  0  0  0  0  0  0  0
   -4.1569   -0.8000    0.0000 O   0  0  0  0  0  0  0  0  0  0  0  0
  1  2  1  0  0  0  0
  2  3  1  0  0  0  0
  3  4  1  0  0  0  0
  4  5  1  0  0  0  0
  5  6  1  0  0  0  0
  5  7  1  0  0  0  0
  5  8  1  0  0  0  0
  4  9  2  0  0  0  0
  9 10  1  0  0  0  0
  9 11  1  0  0  0  0
  2 12  2  0  0  0  0
M  END
> <ChemID>
105819

> <source_casrn>
57933-83-2

> <CAS>
57933-83-2

> <SMILES>
CC(=C)OC(=O)Cl

> <NAME>
Chloroformic acid,isopropenyl ester

> <preferred_name>
Isopropenyl chloroformate

> <iupac>
prop-1-en-2-yl chloroformate

> <MPID>
24615

> <dsstox_substance_id>
DTXSID10206637

> <Canonical_QSARr>
CC(=C)OC(=O)Cl

> <InChI_Code_QSARr>
InChI=1S/C4H5ClO2/c1-3(2)7-4(5)6/h1H2,2H3

> <InChI Key_QSARr>
AMMGCGVWJMRTQI-UHFFFAOYSA-N

> <Salt_Solvent>
?

> <BP>
102.0

$$$$
105825
  -INDIGO-08031720192D

 31 30  0  0  0  0  0  0  0  0999 V2000
    0.0000    0.0000    0.0000 C   0  0  0  0  0  0  0  0  0  0  0  0
    0.6122   -1.4782    0.0000 H   0  0  0  0  0  0  0  0  0  0  0  0
   -0.6122   -1.4782    0.0000 H   0  0  0  0  0  0  0  0  0  0  0  0
    1.3856    0.8000    0.0000 C   0  0  0  0  0  0  0  0  0  0  0  0
    0.7733    2.2782    0.0000 H   0  0  0  0  0  0  0  0  0  0  0  0
    1.9978    2.2782    0.0000 H   0  0  0  0  0  0  0  0  0  0  0  0
    2.7714    0.0000    0.0000 C   0  0  0  0  0  0  0  0  0  0  0  0
    3.3836   -1.4782    0.0000 H   0  0  0  0  0  0  0  0  0  0  0  0
    2.1589   -1.4782    0.0000 H   0  0  0  0  0  0  0  0  0  0  0  0
    4.1570    0.8000    0.0000 C   0  0  0  0  0  0  0  0  0  0  0  0
    5.5426    1.6000    0.0000 H   0  0  0  0  0  0  0  0  0  0  0  0
    5.5426    0.0000    0.0000 H   0  0  0  0  0  0  0  0  0  0  0  0
    4.1570    2.4000    0.0000 H   0  0  0  0  0  0  0  0  0  0  0  0
   -1.3856    0.8000    0.0000 C   0  0  0  0  0  0  0  0  0  0  0  0
   -1.9978    2.2782    0.0000 H   0  0  0  0  0  0  0  0  0  0  0  0
   -0.7733    2.2782    0.0000 H   0  0  0  0  0  0  0  0  0  0  0  0
   -2.7712    0.0000    0.0000 C   0  0  0  0  0  0  0  0  0  0  0  0
   -2.1589   -1.4782    0.0000 H   0  0  0  0  0  0  0  0  0  0  0  0
   -3.3836   -1.4782    0.0000 H   0  0  0  0  0  0  0  0  0  0  0  0
   -4.1570    0.8000    0.0000 C   0  0  0  0  0  0  0  0  0  0  0  0
   -5.5426    1.6000    0.0000 C   0  0  0  0  0  0  0  0  0  0  0  0
   -6.9281    2.4000    0.0000 C   0  0  0  0  0  0  0  0  0  0  0  0
   -7.5404    3.8782    0.0000 H   0  0  0  0  0  0  0  0  0  0  0  0
   -6.3159    3.8782    0.0000 H   0  0  0  0  0  0  0  0  0  0  0  0
   -8.3137    1.6000    0.0000 C   0  0  0  0  0  0  0  0  0  0  0  0
   -7.7015    0.1218    0.0000 H   0  0  0  0  0  0  0  0  0  0  0  0
   -8.9262    0.1218    0.0000 H   0  0  0  0  0  0  0  0  0  0  0  0
   -9.6995    2.4000    0.0000 C   0  0  0  0  0  0  0  0  0  0  0  0
  -11.0851    3.2000    0.0000 H   0  0  0  0  0  0  0  0  0  0  0  0
  -11.0851    1.6000    0.0000 H   0  0  0  0  0  0  0  0  0  0  0  0
   -9.6995    4.0000    0.0000 H   0  0  0  0  0  0  0  0  0  0  0  0
  1  2  1  0  0  0  0
  1  3  1  0  0  0  0
  1  4  1  0  0  0  0
  4  5  1  0  0  0  0
  4  6  1  0  0  0  0
  4  7  1  0  0  0  0
  7  8  1  0  0  0  0
  7  9  1  0  0  0  0
  7 10  1  0  0  0  0
 10 11  1  0  0  0  0
 10 12  1  0  0  0  0
 10 13  1  0  0  0  0
  1 14  1  0  0  0  0
 14 15  1  0  0  0  0
 14 16  1  0  0  0  0
 14 17  1  0  0  0  0
 17 18  1  0  0  0  0
 17 19  1  0  0  0  0
 17 20  1  0  0  0  0
 20 21  3  0  0  0  0
 21 22  1  0  0  0  0
 22 23  1  0  0  0  0
 22 24  1  0  0  0  0
 22 25  1  0  0  0  0
 25 26  1  0  0  0  0
 25 27  1  0  0  0  0
 25 28  1  0  0  0  0
 28 29  1  0  0  0  0
 28 30  1  0  0  0  0
 28 31  1  0  0  0  0
M  END
> <ChemID>
105825

> <source_casrn>
60212-31-9

> <CAS>
60212-31-9

> <SMILES>
CCCC#CCCCCCC

> <NAME>
4-UNDECYNE

> <preferred_name>
4-Undecyne

> <iupac>
undec-4-yne

> <MPID>
24620

> <dsstox_substance_id>
DTXSID40208962

> <Canonical_QSARr>
CCCC#CCCCCCC

> <InChI_Code_QSARr>
InChI=1S/C11H20/c1-3-5-7-9-11-10-8-6-4-2/h3-7,9,11H2,1-2H3

> <InChI Key_QSARr>
RUEKFLJTCZKAMH-UHFFFAOYSA-N

> <Salt_Solvent>
?

> <BP>
198.5

$$$$
105829
  -INDIGO-08031720192D

 14 13  0  0  0  0  0  0  0  0999 V2000
    1.3856   -0.8000    0.0000 C   0  0  0  0  0  0  0  0  0  0  0  0
    2.7713   -1.6000    0.0000 H   0  0  0  0  0  0  0  0  0  0  0  0
    2.7713    0.0000    0.0000 H   0  0  0  0  0  0  0  0  0  0  0  0
    1.3856   -2.4000    0.0000 H   0  0  0  0  0  0  0  0  0  0  0  0
    0.0000    0.0000    0.0000 C   0  0  0  0  0  0  0  0  0  0  0  0
   -1.3856   -0.8000    0.0000 C   0  0  0  0  0  0  0  0  0  0  0  0
   -1.9980   -2.2782    0.0000 H   0  0  0  0  0  0  0  0  0  0  0  0
   -2.7713    0.0000    0.0000 C   0  0  0  0  0  0  0  0  0  0  0  0
   -4.1569    0.8000    0.0000 H   0  0  0  0  0  0  0  0  0  0  0  0
   -4.1569   -0.8000    0.0000 H   0  0  0  0  0  0  0  0  0  0  0  0
   -2.7713    1.6000    0.0000 H   0  0  0  0  0  0  0  0  0  0  0  0
   -0.7733   -2.2782    0.0000 Br  0  0  0  0  0  0  0  0  0  0  0  0
    0.6123    1.4782    0.0000 Br  0  0  0  0  0  0  0  0  0  0  0  0
   -0.6123    1.4782    0.0000 Br  0  0  0  0  0  0  0  0  0  0  0  0
  1  2  1  0  0  0  0
  1  3  1  0  0  0  0
  1  4  1  0  0  0  0
  1  5  1  0  0  0  0
  5  6  1  0  0  0  0
  6  7  1  0  0  0  0
  6  8  1  0  0  0  0
  8  9  1  0  0  0  0
  8 10  1  0  0  0  0
  8 11  1  0  0  0  0
  6 12  1  0  0  0  0
  5 13  1  0  0  0  0
  5 14  1  0  0  0  0
M  END
> <ChemID>
105829

> <source_casrn>
62127-47-3

> <CAS>
NOCAS_871446

> <SMILES>
CC(Br)C(C)(Br)Br

> <NAME>
Butane, 2,2,3-tribromo-

> <preferred_name>


> <iupac>


> <MPID>
24624

> <dsstox_substance_id>
DTXSID70871446

> <Canonical_QSARr>
CC(Br)C(C)(Br)Br

> <InChI_Code_QSARr>
InChI=1S/C4H7Br3/c1-3(5)4(2,6)7/h3H,1-2H3

> <InChI Key_QSARr>
JDWNTZIECWWBAO-UHFFFAOYSA-N

> <Salt_Solvent>
?

> <BP>
206.0

$$$$
105834
  -INDIGO-08031720192D

 25 24  0  0  0  0  0  0  0  0999 V2000
   -2.4001   -1.3856    0.0000 C   0  0  0  0  0  0  0  0  0  0  0  0
   -1.1307   -2.3597    0.0000 H   0  0  0  0  0  0  0  0  0  0  0  0
   -2.1912   -2.9720    0.0000 H   0  0  0  0  0  0  0  0  0  0  0  0
   -1.5999    0.0000    0.0000 C   0  0  0  0  0  0  0  0  0  0  0  0
   -2.8693    0.9740    0.0000 H   0  0  0  0  0  0  0  0  0  0  0  0
   -1.8088    1.5864    0.0000 H   0  0  0  0  0  0  0  0  0  0  0  0
    0.0000    0.0000    0.0000 C   0  0  0  0  0  0  0  0  0  0  0  0
    0.0000   -1.6000    0.0000 H   0  0  0  0  0  0  0  0  0  0  0  0
    1.6000    0.0000    0.0000 C   0  0  0  0  0  0  0  0  0  0  0  0
    1.8088    1.5864    0.0000 H   0  0  0  0  0  0  0  0  0  0  0  0
    2.8694    0.9740    0.0000 H   0  0  0  0  0  0  0  0  0  0  0  0
    2.3999   -1.3856    0.0000 C   0  0  0  0  0  0  0  0  0  0  0  0
    2.1911   -2.9720    0.0000 H   0  0  0  0  0  0  0  0  0  0  0  0
    1.1307   -2.3597    0.0000 H   0  0  0  0  0  0  0  0  0  0  0  0
    4.0000   -1.3856    0.0000 C   0  0  0  0  0  0  0  0  0  0  0  0
    5.6000   -1.3856    0.0000 H   0  0  0  0  0  0  0  0  0  0  0  0
    4.8000   -2.7713    0.0000 H   0  0  0  0  0  0  0  0  0  0  0  0
    4.8000    0.0000    0.0000 H   0  0  0  0  0  0  0  0  0  0  0  0
    0.0000    1.6000    0.0000 C   0  0  0  0  0  0  0  0  0  0  0  0
    0.0000    3.2000    0.0000 H   0  0  0  0  0  0  0  0  0  0  0  0
   -1.2257    2.6284    0.0000 H   0  0  0  0  0  0  0  0  0  0  0  0
    1.2256    2.6284    0.0000 H   0  0  0  0  0  0  0  0  0  0  0  0
   -4.0000   -1.3856    0.0000 N   0  0  0  0  0  0  0  0  0  0  0  0
   -4.8000   -2.7713    0.0000 H   0  0  0  0  0  0  0  0  0  0  0  0
   -4.8000    0.0000    0.0000 H   0  0  0  0  0  0  0  0  0  0  0  0
  1  2  1  0  0  0  0
  1  3  1  0  0  0  0
  1  4  1  0  0  0  0
  4  5  1  0  0  0  0
  4  6  1  0  0  0  0
  4  7  1  0  0  0  0
  7  8  1  0  0  0  0
  7  9  1  0  0  0  0
  9 10  1  0  0  0  0
  9 11  1  0  0  0  0
  9 12  1  0  0  0  0
 12 13  1  0  0  0  0
 12 14  1  0  0  0  0
 12 15  1  0  0  0  0
 15 16  1  0  0  0  0
 15 17  1  0  0  0  0
 15 18  1  0  0  0  0
  7 19  1  0  0  0  0
 19 20  1  0  0  0  0
 19 21  1  0  0  0  0
 19 22  1  0  0  0  0
  1 23  1  0  0  0  0
 23 24  1  0  0  0  0
 23 25  1  0  0  0  0
M  END
> <ChemID>
105834

> <source_casrn>
65530-93-0

> <CAS>
NOCAS_871451

> <SMILES>
CCCC(C)CCN

> <NAME>
1-Hexanamine, 3-methyl-

> <preferred_name>


> <iupac>


> <MPID>
24629

> <dsstox_substance_id>
DTXSID20871451

> <Canonical_QSARr>
CCCC(C)CCN

> <InChI_Code_QSARr>
InChI=1S/C7H17N/c1-3-4-7(2)5-6-8/h7H,3-6,8H2,1-2H3

> <InChI Key_QSARr>
AWBMXILPKKHYSO-UHFFFAOYSA-N

> <Salt_Solvent>
?

> <BP>
149.0

$$$$
105840
  -INDIGO-08031720192D

  8  7  0  0  0  0  0  0  0  0999 V2000
   -1.6000    0.0000    0.0000 C   0  0  0  0  0  0  0  0  0  0  0  0
    0.0000    0.0000    0.0000 C   0  0  0  0  0  0  0  0  0  0  0  0
    0.8000   -1.3856    0.0000 C   0  0  0  0  0  0  0  0  0  0  0  0
    0.0000   -2.7713    0.0000 H   0  0  0  0  0  0  0  0  0  0  0  0
    2.4000   -1.3856    0.0000 C   0  0  0  0  0  0  0  0  0  0  0  0
    4.0000   -1.3856    0.0000 N   0  0  0  0  0  0  0  0  0  0  0  0
    0.8000    1.3856    0.0000 Cl  0  0  0  0  0  0  0  0  0  0  0  0
   -3.2000    0.0000    0.0000 N   0  0  0  0  0  0  0  0  0  0  0  0
  1  2  1  0  0  0  0
  2  3  2  0  0  0  0
  3  4  1  0  0  0  0
  3  5  1  0  0  0  0
  5  6  3  0  0  0  0
  2  7  1  0  0  0  0
  1  8  3  0  0  0  0
M  END
> <ChemID>
105840

> <source_casrn>
71200-79-8

> <CAS>
71200-79-8

> <SMILES>
N#C/C(/Cl)=C/C#N

> <NAME>
CHLOROFUMARONITRILE

> <preferred_name>


> <iupac>


> <MPID>
24633

> <dsstox_substance_id>
DTXSID50878751

> <Canonical_QSARr>
N#CC(Cl)=CC#N

> <InChI_Code_QSARr>
InChI=1S/C4HClN2/c5-4(3-7)1-2-6/h1H/b4-1-

> <InChI Key_QSARr>
VXBAYIAWNLPBHU-RJRFIUFISA-N

> <Salt_Solvent>
?

> <BP>
172.0

$$$$
105846
  -INDIGO-08031720192D

 30 31  0  0  0  0  0  0  0  0999 V2000
   -2.4621    0.8000    0.0000 N   0  0  0  0  0  0  0  0  0  0  0  0
   -0.9405    1.2944    0.0000 C   0  0  0  0  0  0  0  0  0  0  0  0
   -0.4460    2.8161    0.0000 O   0  0  0  0  0  0  0  0  0  0  0  0
    0.0001    0.0000    0.0000 C   0  0  0  0  0  0  0  0  0  0  0  0
    1.1891    1.0706    0.0000 C   0  0  0  0  0  0  0  0  0  0  0  0
    2.3781    2.1412    0.0000 H   0  0  0  0  0  0  0  0  0  0  0  0
    2.7107    0.5762    0.0000 H   0  0  0  0  0  0  0  0  0  0  0  0
    0.8563    2.6357    0.0000 H   0  0  0  0  0  0  0  0  0  0  0  0
    1.1891   -1.0706    0.0000 C   0  0  0  0  0  0  0  0  0  0  0  0
    2.3781   -2.1412    0.0000 H   0  0  0  0  0  0  0  0  0  0  0  0
    2.7107   -0.5762    0.0000 H   0  0  0  0  0  0  0  0  0  0  0  0
    1.1331   -2.6696    0.0000 H   0  0  0  0  0  0  0  0  0  0  0  0
   -0.9405   -1.2944    0.0000 C   0  0  0  0  0  0  0  0  0  0  0  0
    0.0880   -2.5201    0.0000 H   0  0  0  0  0  0  0  0  0  0  0  0
   -1.5912   -2.7561    0.0000 H   0  0  0  0  0  0  0  0  0  0  0  0
   -2.4621   -0.8000    0.0000 O   0  0  0  0  0  0  0  0  0  0  0  0
   -3.7566    1.7405    0.0000 C   0  0  0  0  0  0  0  0  0  0  0  0
   -2.9932    3.1466    0.0000 H   0  0  0  0  0  0  0  0  0  0  0  0
   -4.2109    3.2745    0.0000 H   0  0  0  0  0  0  0  0  0  0  0  0
   -5.2183    1.0896    0.0000 C   0  0  0  0  0  0  0  0  0  0  0  0
   -5.3855   -0.5015    0.0000 C   0  0  0  0  0  0  0  0  0  0  0  0
   -4.0910   -1.4420    0.0000 Cl  0  0  0  0  0  0  0  0  0  0  0  0
   -6.8472   -1.1524    0.0000 C   0  0  0  0  0  0  0  0  0  0  0  0
   -7.0144   -2.7435    0.0000 H   0  0  0  0  0  0  0  0  0  0  0  0
   -8.1416   -0.2119    0.0000 C   0  0  0  0  0  0  0  0  0  0  0  0
   -9.6033   -0.8627    0.0000 H   0  0  0  0  0  0  0  0  0  0  0  0
   -7.9744    1.3794    0.0000 C   0  0  0  0  0  0  0  0  0  0  0  0
   -9.2688    2.3198    0.0000 H   0  0  0  0  0  0  0  0  0  0  0  0
   -6.5127    2.0301    0.0000 C   0  0  0  0  0  0  0  0  0  0  0  0
   -6.3455    3.6214    0.0000 H   0  0  0  0  0  0  0  0  0  0  0  0
  1  2  1  0  0  0  0
  2  3  2  0  0  0  0
  2  4  1  0  0  0  0
  4  5  1  0  0  0  0
  5  6  1  0  0  0  0
  5  7  1  0  0  0  0
  5  8  1  0  0  0  0
  4  9  1  0  0  0  0
  9 10  1  0  0  0  0
  9 11  1  0  0  0  0
  9 12  1  0  0  0  0
  4 13  1  0  0  0  0
 13 14  1  0  0  0  0
 13 15  1  0  0  0  0
 13 16  1  0  0  0  0
 16  1  1  0  0  0  0
  1 17  1  0  0  0  0
 17 18  1  0  0  0  0
 17 19  1  0  0  0  0
 17 20  1  0  0  0  0
 20 21  1  0  0  0  0
 21 22  1  0  0  0  0
 21 23  2  0  0  0  0
 23 24  1  0  0  0  0
 23 25  1  0  0  0  0
 25 26  1  0  0  0  0
 25 27  2  0  0  0  0
 27 28  1  0  0  0  0
 27 29  1  0  0  0  0
 29 20  2  0  0  0  0
 29 30  1  0  0  0  0
M  END
> <ChemID>
105846

> <source_casrn>
81777-89-1

> <CAS>
81777-89-1

> <SMILES>
CC1(C)CON(Cc2ccccc2Cl)C1=O

> <NAME>
CLOMAZONE

> <preferred_name>
Clomazone

> <iupac>
2-(2-chlorobenzyl)-4,4-dimethyl-1,2-oxazolidin-3-one

> <MPID>
24637

> <dsstox_substance_id>
DTXSID1032355

> <Canonical_QSARr>
CC1(C)CON(Cc2ccccc2Cl)C1=O

> <InChI_Code_QSARr>
InChI=1S/C12H14ClNO2/c1-12(2)8-16-14(11(12)15)7-9-5-3-4-6-10(9)13/h3-6H,7-8H2,1-2H3

> <InChI Key_QSARr>
KIEDNEWSYUYDSN-UHFFFAOYSA-N

> <Salt_Solvent>
?

> <BP>
275.0

$$$$
105852
  -INDIGO-08031720192D

 18 17  0  0  0  0  0  0  0  0999 V2000
   -2.4000    1.3856    0.0000 F   0  0  0  0  0  0  0  0  0  0  0  0
   -0.8000    1.3856    0.0000 C   0  0  0  0  0  0  0  0  0  0  0  0
   -1.6000    2.7713    0.0000 F   0  0  0  0  0  0  0  0  0  0  0  0
    0.0001    2.7713    0.0000 F   0  0  0  0  0  0  0  0  0  0  0  0
    0.0001    0.0000    0.0000 C   0  0  0  0  0  0  0  0  0  0  0  0
    0.8000   -1.3856    0.0000 H   0  0  0  0  0  0  0  0  0  0  0  0
    1.5035    0.5472    0.0000 C   0  0  0  0  0  0  0  0  0  0  0  0
    1.1572    2.1093    0.0000 H   0  0  0  0  0  0  0  0  0  0  0  0
    2.3632    1.8967    0.0000 H   0  0  0  0  0  0  0  0  0  0  0  0
    2.7292   -0.4813    0.0000 C   0  0  0  0  0  0  0  0  0  0  0  0
    3.0754   -2.0433    0.0000 H   0  0  0  0  0  0  0  0  0  0  0  0
    1.8695   -1.8307    0.0000 H   0  0  0  0  0  0  0  0  0  0  0  0
    4.2327    0.0660    0.0000 O   0  0  0  0  0  0  0  0  0  0  0  0
    5.4584   -0.9624    0.0000 H   0  0  0  0  0  0  0  0  0  0  0  0
   -1.3857   -0.8000    0.0000 C   0  0  0  0  0  0  0  0  0  0  0  0
   -2.7713   -1.6000    0.0000 H   0  0  0  0  0  0  0  0  0  0  0  0
   -1.3857   -2.4000    0.0000 H   0  0  0  0  0  0  0  0  0  0  0  0
   -2.7713    0.0000    0.0000 H   0  0  0  0  0  0  0  0  0  0  0  0
  1  2  1  0  0  0  0
  2  3  1  0  0  0  0
  2  4  1  0  0  0  0
  2  5  1  0  0  0  0
  5  6  1  0  0  0  0
  5  7  1  0  0  0  0
  7  8  1  0  0  0  0
  7  9  1  0  0  0  0
  7 10  1  0  0  0  0
 10 11  1  0  0  0  0
 10 12  1  0  0  0  0
 10 13  1  0  0  0  0
 13 14  1  0  0  0  0
  5 15  1  0  0  0  0
 15 16  1  0  0  0  0
 15 17  1  0  0  0  0
 15 18  1  0  0  0  0
M  END
> <ChemID>
105852

> <source_casrn>
95853-68-2

> <CAS>
NOCAS_871474

> <SMILES>
CC(CCO)C(F)(F)F

> <NAME>
4,4,4-TRIFLUORO-3-METHYL-1-BUTANOL

> <preferred_name>
4,4,4-trifluoro-3-methylbutan-1-ol

> <iupac>
C5H9F3O

> <MPID>
24641

> <dsstox_substance_id>
DTXSID00871474

> <Canonical_QSARr>
CC(CCO)C(F)(F)F

> <InChI_Code_QSARr>
InChI=1S/C5H9F3O/c1-4(2-3-9)5(6,7)8/h4,9H,2-3H2,1H3

> <InChI Key_QSARr>
JHKAMWUCXKBJBI-UHFFFAOYSA-N

> <Salt_Solvent>
?

> <BP>
139.5

$$$$
105858
  -INDIGO-08031720192D

 40 41  0  0  0  0  0  0  0  0999 V2000
   -5.5426    0.0000    0.0000 N   0  0  0  0  0  0  0  0  0  0  0  0
   -4.1569   -0.7999    0.0000 C   0  0  0  0  0  0  0  0  0  0  0  0
   -2.7713    0.0000    0.0000 C   0  0  0  0  0  0  0  0  0  0  0  0
   -2.7713    1.6000    0.0000 H   0  0  0  0  0  0  0  0  0  0  0  0
   -1.3856   -0.7999    0.0000 C   0  0  0  0  0  0  0  0  0  0  0  0
    0.0001    0.0000    0.0000 C   0  0  0  0  0  0  0  0  0  0  0  0
    0.6123    1.4782    0.0000 H   0  0  0  0  0  0  0  0  0  0  0  0
   -0.6124    1.4782    0.0000 H   0  0  0  0  0  0  0  0  0  0  0  0
    1.3858   -0.7999    0.0000 C   0  0  0  0  0  0  0  0  0  0  0  0
    0.7733   -2.2782    0.0000 H   0  0  0  0  0  0  0  0  0  0  0  0
    2.7711    0.0000    0.0000 C   0  0  0  0  0  0  0  0  0  0  0  0
    4.1568   -0.7999    0.0000 O   0  0  0  0  0  0  0  0  0  0  0  0
    5.5425    0.0000    0.0000 C   0  0  0  0  0  0  0  0  0  0  0  0
    6.1550    1.4782    0.0000 H   0  0  0  0  0  0  0  0  0  0  0  0
    4.9303    1.4782    0.0000 H   0  0  0  0  0  0  0  0  0  0  0  0
    6.9282   -0.7999    0.0000 C   0  0  0  0  0  0  0  0  0  0  0  0
    8.3138   -1.6000    0.0000 H   0  0  0  0  0  0  0  0  0  0  0  0
    8.3138    0.0000    0.0000 H   0  0  0  0  0  0  0  0  0  0  0  0
    6.9282   -2.3999    0.0000 H   0  0  0  0  0  0  0  0  0  0  0  0
    2.7711    1.6000    0.0000 O   0  0  0  0  0  0  0  0  0  0  0  0
    1.9980   -2.2782    0.0000 Cl  0  0  0  0  0  0  0  0  0  0  0  0
   -1.3856   -2.3999    0.0000 C   0  0  0  0  0  0  0  0  0  0  0  0
    0.0001   -3.2000    0.0000 Cl  0  0  0  0  0  0  0  0  0  0  0  0
   -2.7713   -3.2000    0.0000 C   0  0  0  0  0  0  0  0  0  0  0  0
   -2.7713   -4.8000    0.0000 H   0  0  0  0  0  0  0  0  0  0  0  0
   -4.1569   -2.3999    0.0000 C   0  0  0  0  0  0  0  0  0  0  0  0
   -5.5426   -3.2000    0.0000 F   0  0  0  0  0  0  0  0  0  0  0  0
   -7.0041   -0.6508    0.0000 C   0  0  0  0  0  0  0  0  0  0  0  0
   -7.3368   -2.2158    0.0000 O   0  0  0  0  0  0  0  0  0  0  0  0
   -8.0747    0.5382    0.0000 N   0  0  0  0  0  0  0  0  0  0  0  0
   -9.6662    0.3710    0.0000 C   0  0  0  0  0  0  0  0  0  0  0  0
  -11.2573    0.2037    0.0000 H   0  0  0  0  0  0  0  0  0  0  0  0
  -10.6066    1.6655    0.0000 F   0  0  0  0  0  0  0  0  0  0  0  0
  -10.3169   -1.0907    0.0000 F   0  0  0  0  0  0  0  0  0  0  0  0
   -7.2750    1.9238    0.0000 C   0  0  0  0  0  0  0  0  0  0  0  0
   -7.9257    3.3856    0.0000 C   0  0  0  0  0  0  0  0  0  0  0  0
   -8.5765    4.8472    0.0000 H   0  0  0  0  0  0  0  0  0  0  0  0
   -6.9853    4.6800    0.0000 H   0  0  0  0  0  0  0  0  0  0  0  0
   -9.5169    3.5528    0.0000 H   0  0  0  0  0  0  0  0  0  0  0  0
   -5.7098    1.5913    0.0000 N   0  0  0  0  0  0  0  0  0  0  0  0
  1  2  1  0  0  0  0
  2  3  1  0  0  0  0
  3  4  1  0  0  0  0
  3  5  2  0  0  0  0
  5  6  1  0  0  0  0
  6  7  1  0  0  0  0
  6  8  1  0  0  0  0
  6  9  1  0  0  0  0
  9 10  1  0  0  0  0
  9 11  1  0  0  0  0
 11 12  1  0  0  0  0
 12 13  1  0  0  0  0
 13 14  1  0  0  0  0
 13 15  1  0  0  0  0
 13 16  1  0  0  0  0
 16 17  1  0  0  0  0
 16 18  1  0  0  0  0
 16 19  1  0  0  0  0
 11 20  2  0  0  0  0
  9 21  1  0  0  0  0
  5 22  1  0  0  0  0
 22 23  1  0  0  0  0
 22 24  2  0  0  0  0
 24 25  1  0  0  0  0
 24 26  1  0  0  0  0
 26  2  2  0  0  0  0
 26 27  1  0  0  0  0
  1 28  1  0  0  0  0
 28 29  2  0  0  0  0
 28 30  1  0  0  0  0
 30 31  1  0  0  0  0
 31 32  1  0  0  0  0
 31 33  1  0  0  0  0
 31 34  1  0  0  0  0
 30 35  1  0  0  0  0
 35 36  1  0  0  0  0
 36 37  1  0  0  0  0
 36 38  1  0  0  0  0
 36 39  1  0  0  0  0
 35 40  2  0  0  0  0
 40  1  1  0  0  0  0
M  END
> <ChemID>
105858

> <source_casrn>
128639-02-1

> <CAS>
128639-02-1

> <SMILES>
CC1=NN(c2cc(CC(Cl)C(=O)OCC)c(Cl)cc2F)C(=O)N1C(F)F

> <NAME>
Carfentrazone-ethyl

> <preferred_name>
Carfentrazone-ethyl

> <iupac>
ethyl 2-chloro-3-{2-chloro-5-[4-(difluoromethyl)-3-methyl-5-oxo-4,5-dihydro-1H-1,2,4-triazol-1-yl]-4-fluorophenyl}propanoate

> <MPID>
24645

> <dsstox_substance_id>
DTXSID4032532

> <Canonical_QSARr>
CC1=NN(c2cc(CC(Cl)C(=O)OCC)c(Cl)cc2F)C(=O)N1C(F)F

> <InChI_Code_QSARr>
InChI=1S/C15H14Cl2F3N3O3/c1-3-26-13(24)10(17)4-8-5-12(11(18)6-9(8)16)23-15(25)22(14(19)20)7(2)21-23/h5-6,10,14H,3-4H2,1-2H3

> <InChI Key_QSARr>
MLKCGVHIFJBRCD-UHFFFAOYSA-N

> <Salt_Solvent>
?

> <BP>
352.5

$$$$
105880
  -INDIGO-08031720192D

 23 22  0  0  0  0  0  0  0  0999 V2000
   -4.1569    0.8000    0.0000 C   0  0  0  0  0  0  0  0  0  0  0  0
   -2.7712    0.0000    0.0000 C   0  0  0  0  0  0  0  0  0  0  0  0
   -1.3856    0.8000    0.0000 C   0  0  0  0  0  0  0  0  0  0  0  0
    0.0001    0.0000    0.0000 C   0  0  0  0  0  0  0  0  0  0  0  0
    1.3856    0.8000    0.0000 C   0  0  0  0  0  0  0  0  0  0  0  0
    2.7712    0.0000    0.0000 C   0  0  0  0  0  0  0  0  0  0  0  0
    4.1569    0.8000    0.0000 C   0  0  0  0  0  0  0  0  0  0  0  0
    5.5426    1.6000    0.0000 F   0  0  0  0  0  0  0  0  0  0  0  0
    5.5426    0.0000    0.0000 F   0  0  0  0  0  0  0  0  0  0  0  0
    4.1569    2.4000    0.0000 F   0  0  0  0  0  0  0  0  0  0  0  0
    2.1589   -1.4782    0.0000 F   0  0  0  0  0  0  0  0  0  0  0  0
    3.3836   -1.4782    0.0000 F   0  0  0  0  0  0  0  0  0  0  0  0
    1.9979    2.2782    0.0000 F   0  0  0  0  0  0  0  0  0  0  0  0
    0.7734    2.2782    0.0000 F   0  0  0  0  0  0  0  0  0  0  0  0
   -0.6122   -1.4782    0.0000 F   0  0  0  0  0  0  0  0  0  0  0  0
    0.6122   -1.4782    0.0000 F   0  0  0  0  0  0  0  0  0  0  0  0
   -0.7734    2.2782    0.0000 F   0  0  0  0  0  0  0  0  0  0  0  0
   -1.9979    2.2782    0.0000 F   0  0  0  0  0  0  0  0  0  0  0  0
   -3.3836   -1.4782    0.0000 F   0  0  0  0  0  0  0  0  0  0  0  0
   -2.1589   -1.4782    0.0000 F   0  0  0  0  0  0  0  0  0  0  0  0
   -5.5426    1.6000    0.0000 Cl  0  0  0  0  0  0  0  0  0  0  0  0
   -5.5426    0.0000    0.0000 F   0  0  0  0  0  0  0  0  0  0  0  0
   -4.1569    2.4000    0.0000 F   0  0  0  0  0  0  0  0  0  0  0  0
  1  2  1  0  0  0  0
  2  3  1  0  0  0  0
  3  4  1  0  0  0  0
  4  5  1  0  0  0  0
  5  6  1  0  0  0  0
  6  7  1  0  0  0  0
  7  8  1  0  0  0  0
  7  9  1  0  0  0  0
  7 10  1  0  0  0  0
  6 11  1  0  0  0  0
  6 12  1  0  0  0  0
  5 13  1  0  0  0  0
  5 14  1  0  0  0  0
  4 15  1  0  0  0  0
  4 16  1  0  0  0  0
  3 17  1  0  0  0  0
  3 18  1  0  0  0  0
  2 19  1  0  0  0  0
  2 20  1  0  0  0  0
  1 21  1  0  0  0  0
  1 22  1  0  0  0  0
  1 23  1  0  0  0  0
M  END
> <ChemID>
105880

> <source_casrn>
SRC003-84-3

> <CAS>
NOCAS_871525

> <SMILES>
FC(F)(F)C(F)(F)C(F)(F)C(F)(F)C(F)(F)C(F)(F)C(F)(F)Cl

> <NAME>
1-Chloro-pentadecafluoroheptane

> <preferred_name>


> <iupac>


> <MPID>
24649

> <dsstox_substance_id>
DTXSID50871525

> <Canonical_QSARr>
FC(F)(F)C(F)(F)C(F)(F)C(F)(F)C(F)(F)C(F)(F)C(F)(F)Cl

> <InChI_Code_QSARr>
InChI=1S/C7ClF15/c8-6(19,20)4(15,16)2(11,12)1(9,10)3(13,14)5(17,18)7(21,22)23

> <InChI Key_QSARr>
MAUNZEOOXXBGIT-UHFFFAOYSA-N

> <Salt_Solvent>
?

> <BP>
108.0

$$$$
105883
  -INDIGO-08031720192D

 25 24  0  0  0  0  0  0  0  0999 V2000
    5.5425   -1.6000    0.0000 Cl  0  0  0  0  0  0  0  0  0  0  0  0
    5.5425    0.0000    0.0000 C   0  0  0  0  0  0  0  0  0  0  0  0
    6.9282    0.8000    0.0000 O   0  0  0  0  0  0  0  0  0  0  0  0
    4.1570    0.8000    0.0000 C   0  0  0  0  0  0  0  0  0  0  0  0
    3.5446    2.2782    0.0000 F   0  0  0  0  0  0  0  0  0  0  0  0
    4.7692    2.2782    0.0000 F   0  0  0  0  0  0  0  0  0  0  0  0
    2.7713    0.0000    0.0000 C   0  0  0  0  0  0  0  0  0  0  0  0
    3.3836   -1.4782    0.0000 F   0  0  0  0  0  0  0  0  0  0  0  0
    2.1589   -1.4782    0.0000 F   0  0  0  0  0  0  0  0  0  0  0  0
    1.3856    0.8000    0.0000 C   0  0  0  0  0  0  0  0  0  0  0  0
    0.7734    2.2782    0.0000 F   0  0  0  0  0  0  0  0  0  0  0  0
    1.9979    2.2782    0.0000 F   0  0  0  0  0  0  0  0  0  0  0  0
    0.0001    0.0000    0.0000 C   0  0  0  0  0  0  0  0  0  0  0  0
    0.6122   -1.4782    0.0000 F   0  0  0  0  0  0  0  0  0  0  0  0
   -0.6123   -1.4782    0.0000 F   0  0  0  0  0  0  0  0  0  0  0  0
   -1.3856    0.8000    0.0000 C   0  0  0  0  0  0  0  0  0  0  0  0
   -1.9980    2.2782    0.0000 F   0  0  0  0  0  0  0  0  0  0  0  0
   -0.7733    2.2782    0.0000 F   0  0  0  0  0  0  0  0  0  0  0  0
   -2.7713    0.0000    0.0000 C   0  0  0  0  0  0  0  0  0  0  0  0
   -2.1590   -1.4782    0.0000 F   0  0  0  0  0  0  0  0  0  0  0  0
   -3.3835   -1.4782    0.0000 F   0  0  0  0  0  0  0  0  0  0  0  0
   -4.1569    0.8000    0.0000 C   0  0  0  0  0  0  0  0  0  0  0  0
   -5.5426    1.6000    0.0000 F   0  0  0  0  0  0  0  0  0  0  0  0
   -5.5426    0.0000    0.0000 F   0  0  0  0  0  0  0  0  0  0  0  0
   -4.1569    2.4000    0.0000 F   0  0  0  0  0  0  0  0  0  0  0  0
  1  2  1  0  0  0  0
  2  3  2  0  0  0  0
  2  4  1  0  0  0  0
  4  5  1  0  0  0  0
  4  6  1  0  0  0  0
  4  7  1  0  0  0  0
  7  8  1  0  0  0  0
  7  9  1  0  0  0  0
  7 10  1  0  0  0  0
 10 11  1  0  0  0  0
 10 12  1  0  0  0  0
 10 13  1  0  0  0  0
 13 14  1  0  0  0  0
 13 15  1  0  0  0  0
 13 16  1  0  0  0  0
 16 17  1  0  0  0  0
 16 18  1  0  0  0  0
 16 19  1  0  0  0  0
 19 20  1  0  0  0  0
 19 21  1  0  0  0  0
 19 22  1  0  0  0  0
 22 23  1  0  0  0  0
 22 24  1  0  0  0  0
 22 25  1  0  0  0  0
M  END
> <ChemID>
105883

> <source_casrn>
SRC003-84-6

> <CAS>
335-64-8

> <SMILES>
O=C(Cl)C(F)(F)C(F)(F)C(F)(F)C(F)(F)C(F)(F)C(F)(F)C(F)(F)F

> <NAME>
Pentadecafluoro-octanoyl chloride

> <preferred_name>
Pentadecafluorooctyl chloride

> <iupac>
2,2,3,3,4,4,5,5,6,6,7,7,8,8,8-pentadecafluorooctanoyl chloride

> <MPID>
24651

> <dsstox_substance_id>
DTXSID40187142

> <Canonical_QSARr>
O=C(Cl)C(F)(F)C(F)(F)C(F)(F)C(F)(F)C(F)(F)C(F)(F)C(F)(F)F

> <InChI_Code_QSARr>
InChI=1S/C8ClF15O/c9-1(25)2(10,11)3(12,13)4(14,15)5(16,17)6(18,19)7(20,21)8(22,23)24

> <InChI Key_QSARr>
AQQBRCXWZZAFOK-UHFFFAOYSA-N

> <Salt_Solvent>
?

> <BP>
131.0

$$$$
